008_ring
     RDKit          2D

 14 16  0  0  0  0  0  0  0  0999 V2000
    3.7500   -0.3712    0.0000 C   0  0  0  0  0  0  0  0  0  0  0  0
    3.0000   -1.6702    0.0000 C   0  0  0  0  0  0  0  0  0  0  0  0
    1.5000   -1.6702    0.0000 O   0  0  0  0  0  0  0  0  0  0  0  0
    0.7500   -0.3712    0.0000 C   0  0  0  0  0  0  0  0  0  0  0  0
   -0.7500   -0.3712    0.0000 C   0  0  0  0  0  0  0  0  0  0  0  0
   -1.5000    0.9279    0.0000 C   0  0  0  0  0  0  0  0  0  0  0  0
   -0.7500    2.2269    0.0000 C   0  0  0  0  0  0  0  0  0  0  0  0
    0.7500    2.2269    0.0000 C   0  0  0  0  0  0  0  0  0  0  0  0
    1.5000    0.9279    0.0000 C   0  0  0  0  0  0  0  0  0  0  0  0
    3.0000    0.9279    0.0000 C   0  0  0  0  0  0  0  0  0  0  0  0
   -3.0000    0.9279    0.0000 C   0  0  0  0  0  0  0  0  0  0  0  0
   -3.7500   -0.3712    0.0000 S   0  0  0  0  0  0  0  0  0  0  0  0
   -3.0000   -1.6702    0.0000 C   0  0  0  0  0  0  0  0  0  0  0  0
   -1.5000   -1.6702    0.0000 C   0  0  0  0  0  0  0  0  0  0  0  0
  1  2  2  0
  2  3  1  0
  3  4  1  0
  4  5  2  0
  5  6  1  0
  6  7  1  0
  7  8  2  0
  8  9  1  0
  9 10  2  0
  6 11  2  0
 11 12  1  0
 12 13  1  0
 13 14  2  0
 10  1  1  0
  9  4  1  0
 14  5  1  0
M  END
