013_ring
     RDKit          2D

 30 36  0  0  0  0  0  0  0  0999 V2000
    1.8698    1.2682    0.0000 C   0  0  0  0  0  0  0  0  0  0  0  0
    1.1409    1.2543    0.0000 C   0  0  0  0  0  0  0  0  0  0  0  0
    0.3175    1.2482    0.0000 C   0  0  0  0  0  0  0  0  0  0  0  0
    0.9766    2.5957    0.0000 C   0  0  0  0  0  0  0  0  0  0  0  0
    0.1391    3.8401    0.0000 C   0  0  0  0  0  0  0  0  0  0  0  0
   -1.3573    3.7372    0.0000 C   0  0  0  0  0  0  0  0  0  0  0  0
   -2.0164    2.3897    0.0000 C   0  0  0  0  0  0  0  0  0  0  0  0
   -3.5128    2.2867    0.0000 O   0  0  0  0  0  0  0  0  0  0  0  0
   -4.1719    0.9393    0.0000 C   0  0  0  0  0  0  0  0  0  0  0  0
   -3.3345   -0.3052    0.0000 C   0  0  0  0  0  0  0  0  0  0  0  0
   -3.9935   -1.6527    0.0000 O   0  0  0  0  0  0  0  0  0  0  0  0
   -3.1561   -2.8972    0.0000 O   0  0  0  0  0  0  0  0  0  0  0  0
   -1.6596   -2.7942    0.0000 C   0  0  0  0  0  0  0  0  0  0  0  0
   -0.8222   -4.0387    0.0000 C   0  0  0  0  0  0  0  0  0  0  0  0
    0.6742   -3.9357    0.0000 N   0  0  0  0  0  0  0  0  0  0  0  0
    1.3333   -2.5882    0.0000 C   0  0  0  0  0  0  0  0  0  0  0  0
    2.8297   -2.4853    0.0000 C   0  0  0  0  0  0  0  0  0  0  0  0
    3.4888   -1.1378    0.0000 N   0  0  0  0  0  0  0  0  0  0  0  0
    2.6514    0.1067    0.0000 C   0  0  0  0  0  0  0  0  0  0  0  0
    2.1897    0.1666    0.0000 C   0  0  0  0  0  0  0  0  0  0  0  0
    2.4485    0.2481    0.0000 S   0  0  0  0  0  0  0  0  0  0  0  0
    1.3365    0.1716    0.0000 N   0  0  0  0  0  0  0  0  0  0  0  0
    1.6041    0.1263    0.0000 N   0  0  0  0  0  0  0  0  0  0  0  0
    1.1549    0.0037    0.0000 C   0  0  0  0  0  0  0  0  0  0  0  0
    0.4959   -1.3437    0.0000 C   0  0  0  0  0  0  0  0  0  0  0  0
   -1.0006   -1.4467    0.0000 C   0  0  0  0  0  0  0  0  0  0  0  0
   -1.8380   -0.2022    0.0000 C   0  0  0  0  0  0  0  0  0  0  0  0
   -1.1790    1.1452    0.0000 C   0  0  0  0  0  0  0  0  0  0  0  0
    1.4772    1.9420    0.0000 C   0  0  0  0  0  0  0  0  0  0  0  0
    1.9137    1.3580    0.0000 N   0  0  0  0  0  0  0  0  0  0  0  0
  1  2  2  0
  2  3  1  0
  3  4  2  0
  4  5  1  0
  5  6  2  0
  6  7  1  0
  7  8  1  0
  8  9  1  0
  9 10  2  0
 10 11  1  0
 11 12  1  0
 12 13  1  0
 13 14  2  0
 14 15  1  0
 15 16  2  0
 16 17  1  0
 17 18  2  0
 18 19  1  0
 19 20  2  0
 20 21  1  0
 21 22  1  0
 22 23  2  0
 23 24  1  0
 24 25  2  0
 25 26  1  0
 26 27  2  0
 27 28  1  0
  4 29  1  0
 29 30  2  0
 30  1  1  0
 28  3  1  0
 28  7  2  0
 27 10  1  0
 26 13  1  0
 25 16  1  0
 24 19  1  0
M  END
