026_ring
     RDKit          2D

 16 19  0  0  0  0  0  0  0  0999 V2000
    3.9559   -0.6983    0.0000 C   0  0  0  0  0  0  0  0  0  0  0  0
    2.6762   -1.4809    0.0000 C   0  0  0  0  0  0  0  0  0  0  0  0
    1.3586   -0.7640    0.0000 C   0  0  0  0  0  0  0  0  0  0  0  0
    1.3207    0.7355    0.0000 C   0  0  0  0  0  0  0  0  0  0  0  0
    2.6004    1.5181    0.0000 N   0  0  0  0  0  0  0  0  0  0  0  0
    3.9180    0.8012    0.0000 N   0  0  0  0  0  0  0  0  0  0  0  0
   -0.1171    1.1628    0.0000 C   0  0  0  0  0  0  0  0  0  0  0  0
   -0.7617    2.5173    0.0000 N   0  0  0  0  0  0  0  0  0  0  0  0
   -2.2569    2.6363    0.0000 N   0  0  0  0  0  0  0  0  0  0  0  0
   -3.1077    1.4009    0.0000 C   0  0  0  0  0  0  0  0  0  0  0  0
   -2.4631    0.0464    0.0000 C   0  0  0  0  0  0  0  0  0  0  0  0
   -3.0548   -1.3393    0.0000 N   0  0  0  0  0  0  0  0  0  0  0  0
   -2.2722   -2.6189    0.0000 N   0  0  0  0  0  0  0  0  0  0  0  0
   -0.7727   -2.5810    0.0000 C   0  0  0  0  0  0  0  0  0  0  0  0
   -0.0558   -1.2634    0.0000 C   0  0  0  0  0  0  0  0  0  0  0  0
   -0.9678   -0.0726    0.0000 C   0  0  0  0  0  0  0  0  0  0  0  0
  1  2  2  0
  2  3  1  0
  3  4  2  0
  4  5  1  0
  5  6  2  0
  4  7  1  0
  7  8  2  0
  8  9  1  0
  9 10  2  0
 10 11  1  0
 11 12  1  0
 12 13  2  0
 13 14  1  0
 14 15  2  0
 15 16  1  0
  6  1  1  0
 16  7  1  0
 15  3  1  0
 16 11  2  0
M  END
