044_ring
     RDKit          2D

 18 21  0  0  0  0  0  0  0  0999 V2000
   -3.8971    0.2500    0.0000 C   0  0  0  0  0  0  0  0  0  0  0  0
   -3.8971    1.7500    0.0000 N   0  0  0  0  0  0  0  0  0  0  0  0
   -2.5981    2.5000    0.0000 O   0  0  0  0  0  0  0  0  0  0  0  0
   -1.2990    1.7500    0.0000 N   0  0  0  0  0  0  0  0  0  0  0  0
   -1.2990    0.2500    0.0000 C   0  0  0  0  0  0  0  0  0  0  0  0
   -2.5981   -0.5000    0.0000 C   0  0  0  0  0  0  0  0  0  0  0  0
   -2.5981   -2.0000    0.0000 C   0  0  0  0  0  0  0  0  0  0  0  0
   -1.2990   -2.7500    0.0000 N   0  0  0  0  0  0  0  0  0  0  0  0
    0.0000   -2.0000    0.0000 C   0  0  0  0  0  0  0  0  0  0  0  0
   -0.0000   -0.5000    0.0000 C   0  0  0  0  0  0  0  0  0  0  0  0
    1.2990    0.2500    0.0000 C   0  0  0  0  0  0  0  0  0  0  0  0
    1.2990    1.7500    0.0000 N   0  0  0  0  0  0  0  0  0  0  0  0
    2.5981    2.5000    0.0000 N   0  0  0  0  0  0  0  0  0  0  0  0
    3.8971    1.7500    0.0000 N   0  0  0  0  0  0  0  0  0  0  0  0
    3.8971    0.2500    0.0000 C   0  0  0  0  0  0  0  0  0  0  0  0
    2.5981   -0.5000    0.0000 C   0  0  0  0  0  0  0  0  0  0  0  0
    2.5981   -2.0000    0.0000 N   0  0  0  0  0  0  0  0  0  0  0  0
    1.2990   -2.7500    0.0000 O   0  0  0  0  0  0  0  0  0  0  0  0
  1  2  2  0
  2  3  1  0
  3  4  1  0
  4  5  2  0
  5  6  1  0
  6  7  2  0
  7  8  1  0
  8  9  2  0
  9 10  1  0
 10 11  2  0
 11 12  1  0
 12 13  2  0
 13 14  1  0
 14 15  2  0
 15 16  1  0
 16 17  2  0
 17 18  1  0
  6  1  1  0
 18  9  1  0
 10  5  1  0
 16 11  1  0
M  END
