050_ring
     RDKit          2D

 16 19  0  0  0  0  0  0  0  0999 V2000
   -2.2125   -2.6412    0.0000 C   0  0  0  0  0  0  0  0  0  0  0  0
   -0.7183   -2.5103    0.0000 C   0  0  0  0  0  0  0  0  0  0  0  0
   -0.0845   -1.1508    0.0000 C   0  0  0  0  0  0  0  0  0  0  0  0
    1.3499   -0.7120    0.0000 C   0  0  0  0  0  0  0  0  0  0  0  0
    2.6357   -1.4844    0.0000 C   0  0  0  0  0  0  0  0  0  0  0  0
    3.9476   -0.7571    0.0000 N   0  0  0  0  0  0  0  0  0  0  0  0
    3.9736    0.7427    0.0000 N   0  0  0  0  0  0  0  0  0  0  0  0
    2.6878    1.5151    0.0000 C   0  0  0  0  0  0  0  0  0  0  0  0
    1.3759    0.7877    0.0000 C   0  0  0  0  0  0  0  0  0  0  0  0
   -0.0424    1.2759    0.0000 C   0  0  0  0  0  0  0  0  0  0  0  0
   -0.8945    2.5186    0.0000 N   0  0  0  0  0  0  0  0  0  0  0  0
   -2.3942    2.5446    0.0000 O   0  0  0  0  0  0  0  0  0  0  0  0
   -3.1667    1.2588    0.0000 C   0  0  0  0  0  0  0  0  0  0  0  0
   -2.4393   -0.0530    0.0000 C   0  0  0  0  0  0  0  0  0  0  0  0
   -3.0731   -1.4126    0.0000 O   0  0  0  0  0  0  0  0  0  0  0  0
   -0.9450    0.0779    0.0000 C   0  0  0  0  0  0  0  0  0  0  0  0
  1  2  2  0
  2  3  1  0
  3  4  1  0
  4  5  2  0
  5  6  1  0
  6  7  2  0
  7  8  1  0
  8  9  2  0
  9 10  1  0
 10 11  2  0
 11 12  1  0
 12 13  1  0
 13 14  2  0
 14 15  1  0
 14 16  1  0
 15  1  1  0
 16  3  2  0
  9  4  1  0
 16 10  1  0
M  END
