052_ring
     RDKit          2D

 22 26  0  0  0  0  0  0  0  0999 V2000
    1.5000   -2.9524    0.0000 N   0  0  0  0  0  0  0  0  0  0  0  0
    0.7500   -1.6533    0.0000 N   0  0  0  0  0  0  0  0  0  0  0  0
    1.5000   -0.3543    0.0000 C   0  0  0  0  0  0  0  0  0  0  0  0
    0.7500    0.9448    0.0000 C   0  0  0  0  0  0  0  0  0  0  0  0
    1.5000    2.2438    0.0000 C   0  0  0  0  0  0  0  0  0  0  0  0
    3.0000    2.2438    0.0000 N   0  0  0  0  0  0  0  0  0  0  0  0
    3.7500    0.9448    0.0000 N   0  0  0  0  0  0  0  0  0  0  0  0
    3.0000   -0.3543    0.0000 C   0  0  0  0  0  0  0  0  0  0  0  0
    3.7500   -1.6533    0.0000 N   0  0  0  0  0  0  0  0  0  0  0  0
    3.0000   -2.9524    0.0000 O   0  0  0  0  0  0  0  0  0  0  0  0
    0.7500    3.5428    0.0000 N   0  0  0  0  0  0  0  0  0  0  0  0
   -0.7500    3.5428    0.0000 O   0  0  0  0  0  0  0  0  0  0  0  0
   -1.5000    2.2438    0.0000 C   0  0  0  0  0  0  0  0  0  0  0  0
   -3.0000    2.2438    0.0000 N   0  0  0  0  0  0  0  0  0  0  0  0
   -3.7500    0.9448    0.0000 N   0  0  0  0  0  0  0  0  0  0  0  0
   -3.0000   -0.3543    0.0000 C   0  0  0  0  0  0  0  0  0  0  0  0
   -3.7500   -1.6533    0.0000 N   0  0  0  0  0  0  0  0  0  0  0  0
   -3.0000   -2.9524    0.0000 N   0  0  0  0  0  0  0  0  0  0  0  0
   -1.5000   -2.9524    0.0000 N   0  0  0  0  0  0  0  0  0  0  0  0
   -0.7500   -1.6533    0.0000 N   0  0  0  0  0  0  0  0  0  0  0  0
   -1.5000   -0.3543    0.0000 C   0  0  0  0  0  0  0  0  0  0  0  0
   -0.7500    0.9448    0.0000 C   0  0  0  0  0  0  0  0  0  0  0  0
  1  2  2  0
  2  3  1  0
  3  4  2  0
  4  5  1  0
  5  6  1  0
  6  7  2  0
  7  8  1  0
  8  9  2  0
  9 10  1  0
  5 11  2  0
 11 12  1  0
 12 13  1  0
 13 14  1  0
 14 15  2  0
 15 16  1  0
 16 17  2  0
 17 18  1  0
 18 19  2  0
 19 20  1  0
 20 21  2  0
 21 22  1  0
 10  1  1  0
 22 13  2  0
  8  3  1  0
 21 16  1  0
 22  4  1  0
M  END
