054_ring
     RDKit          2D

 34 41  0  0  0  0  0  0  0  0999 V2000
    1.9061   -1.0341    0.0000 C   0  0  0  0  0  0  0  0  0  0  0  0
    0.8594   -0.6500    0.0000 C   0  0  0  0  0  0  0  0  0  0  0  0
    1.1190   -0.7104    0.0000 C   0  0  0  0  0  0  0  0  0  0  0  0
    0.7111   -0.4954    0.0000 C   0  0  0  0  0  0  0  0  0  0  0  0
    2.1193   -1.0122    0.0000 C   0  0  0  0  0  0  0  0  0  0  0  0
    1.6691   -0.9123    0.0000 C   0  0  0  0  0  0  0  0  0  0  0  0
    3.2709   -0.0511    0.0000 C   0  0  0  0  0  0  0  0  0  0  0  0
    3.0143    1.4268    0.0000 C   0  0  0  0  0  0  0  0  0  0  0  0
    1.6062    1.9436    0.0000 C   0  0  0  0  0  0  0  0  0  0  0  0
    1.3496    3.4215    0.0000 C   0  0  0  0  0  0  0  0  0  0  0  0
   -0.0585    3.9383    0.0000 C   0  0  0  0  0  0  0  0  0  0  0  0
   -1.2102    2.9772    0.0000 C   0  0  0  0  0  0  0  0  0  0  0  0
   -2.6183    3.4939    0.0000 N   0  0  0  0  0  0  0  0  0  0  0  0
   -3.7700    2.5328    0.0000 O   0  0  0  0  0  0  0  0  0  0  0  0
   -3.5134    1.0549    0.0000 C   0  0  0  0  0  0  0  0  0  0  0  0
   -4.6650    0.0938    0.0000 C   0  0  0  0  0  0  0  0  0  0  0  0
   -4.4085   -1.3841    0.0000 O   0  0  0  0  0  0  0  0  0  0  0  0
   -3.0003   -1.9009    0.0000 C   0  0  0  0  0  0  0  0  0  0  0  0
   -2.7438   -3.3788    0.0000 S   0  0  0  0  0  0  0  0  0  0  0  0
   -1.3356   -3.8956    0.0000 N   0  0  0  0  0  0  0  0  0  0  0  0
   -0.1840   -2.9344    0.0000 C   0  0  0  0  0  0  0  0  0  0  0  0
    1.2242   -3.4512    0.0000 O   0  0  0  0  0  0  0  0  0  0  0  0
    2.3758   -2.4901    0.0000 C   0  0  0  0  0  0  0  0  0  0  0  0
    2.1193   -1.0122    0.0000 C   0  0  0  0  0  0  0  0  0  0  0  0
    3.2709   -0.0511    0.0000 C   0  0  0  0  0  0  0  0  0  0  0  0
    3.0143    1.4268    0.0000 C   0  0  0  0  0  0  0  0  0  0  0  0
    1.6062    1.9436    0.0000 N   0  0  0  0  0  0  0  0  0  0  0  0
    0.4545    0.9825    0.0000 C   0  0  0  0  0  0  0  0  0  0  0  0
    0.7111   -0.4954    0.0000 C   0  0  0  0  0  0  0  0  0  0  0  0
   -0.4405   -1.4565    0.0000 C   0  0  0  0  0  0  0  0  0  0  0  0
   -1.8487   -0.9398    0.0000 C   0  0  0  0  0  0  0  0  0  0  0  0
   -2.1053    0.5381    0.0000 C   0  0  0  0  0  0  0  0  0  0  0  0
   -0.9536    1.4993    0.0000 C   0  0  0  0  0  0  0  0  0  0  0  0
    0.4545    0.9825    0.0000 C   0  0  0  0  0  0  0  0  0  0  0  0
  1  2  2  0
  2  3  1  0
  3  4  2  0
  4  5  1  0
  5  6  2  0
  5  7  1  0
  7  8  2  0
  8  9  1  0
  9 10  1  0
 10 11  2  0
 11 12  1  0
 12 13  2  0
 13 14  1  0
 14 15  1  0
 15 16  2  0
 16 17  1  0
 17 18  1  0
 18 19  1  0
 19 20  1  0
 20 21  2  0
 21 22  1  0
 22 23  1  0
 23 24  2  0
 24 25  1  0
 25 26  2  0
 26 27  1  0
 27 28  2  0
 28 29  1  0
 29 30  2  0
 30 31  1  0
 31 32  1  0
 32 33  2  0
 33 34  1  0
  6  1  1  0
 34  9  2  0
 34  4  1  0
 33 12  1  0
 32 15  1  0
 31 18  2  0
 30 21  1  0
 29 24  1  0
M  END
