058_ring
     RDKit          2D

 26 31  0  0  0  0  0  0  0  0999 V2000
    1.8979   -3.6221    0.0000 C   0  0  0  0  0  0  0  0  0  0  0  0
    0.5172   -3.0358    0.0000 N   0  0  0  0  0  0  0  0  0  0  0  0
    0.3347   -1.5470    0.0000 N   0  0  0  0  0  0  0  0  0  0  0  0
    1.5328   -0.6444    0.0000 C   0  0  0  0  0  0  0  0  0  0  0  0
    2.9134   -1.2308    0.0000 C   0  0  0  0  0  0  0  0  0  0  0  0
    3.0960   -2.7196    0.0000 N   0  0  0  0  0  0  0  0  0  0  0  0
    4.1115   -0.3282    0.0000 N   0  0  0  0  0  0  0  0  0  0  0  0
    3.9290    1.1606    0.0000 S   0  0  0  0  0  0  0  0  0  0  0  0
    2.5483    1.7469    0.0000 C   0  0  0  0  0  0  0  0  0  0  0  0
    2.3658    3.2358    0.0000 N   0  0  0  0  0  0  0  0  0  0  0  0
    0.9851    3.8221    0.0000 C   0  0  0  0  0  0  0  0  0  0  0  0
   -0.2130    2.9196    0.0000 C   0  0  0  0  0  0  0  0  0  0  0  0
   -1.5937    3.5059    0.0000 O   0  0  0  0  0  0  0  0  0  0  0  0
   -2.7918    2.6034    0.0000 N   0  0  0  0  0  0  0  0  0  0  0  0
   -2.6092    1.1145    0.0000 C   0  0  0  0  0  0  0  0  0  0  0  0
   -3.8073    0.2120    0.0000 C   0  0  0  0  0  0  0  0  0  0  0  0
   -3.6247   -1.2768    0.0000 C   0  0  0  0  0  0  0  0  0  0  0  0
   -2.2441   -1.8632    0.0000 C   0  0  0  0  0  0  0  0  0  0  0  0
   -1.8421   -1.6372    0.0000 C   0  0  0  0  0  0  0  0  0  0  0  0
   -2.0338   -1.8224    0.0000 O   0  0  0  0  0  0  0  0  0  0  0  0
   -1.1432   -1.1515    0.0000 S   0  0  0  0  0  0  0  0  0  0  0  0
   -1.3741   -1.2846    0.0000 N   0  0  0  0  0  0  0  0  0  0  0  0
   -1.0460   -0.9606    0.0000 C   0  0  0  0  0  0  0  0  0  0  0  0
   -1.2285    0.5282    0.0000 C   0  0  0  0  0  0  0  0  0  0  0  0
   -0.0304    1.4307    0.0000 C   0  0  0  0  0  0  0  0  0  0  0  0
    1.3502    0.8444    0.0000 C   0  0  0  0  0  0  0  0  0  0  0  0
  1  2  1  0
  2  3  2  0
  3  4  1  0
  4  5  1  0
  5  6  1  0
  5  7  2  0
  7  8  1  0
  8  9  1  0
  9 10  2  0
 10 11  1  0
 11 12  2  0
 12 13  1  0
 13 14  1  0
 14 15  2  0
 15 16  1  0
 16 17  2  0
 17 18  1  0
 18 19  2  0
 19 20  1  0
 20 21  1  0
 21 22  1  0
 22 23  2  0
 23 24  1  0
 24 25  2  0
 25 26  1  0
  6  1  2  0
 26  9  1  0
 26  4  2  0
 25 12  1  0
 24 15  1  0
 23 18  1  0
M  END
