001_peptide
     RDKit          2D

 27 26  0  0  0  0  0  0  0  0999 V2000
    0.4679    5.3754    0.0000 C   0  0  0  0  0  0  0  0  0  0  0  0
    1.9536    5.1686    0.0000 C   0  0  0  0  0  0  0  0  0  0  0  0
    2.5173    3.7785    0.0000 C   0  0  0  0  0  0  0  0  0  0  0  0
    4.0030    3.5717    0.0000 C   0  0  0  0  0  0  0  0  0  0  0  0
    1.5953    2.5953    0.0000 C   0  0  0  0  0  0  0  0  0  0  0  0
    0.1097    2.8022    0.0000 N   0  0  0  0  0  0  0  0  0  0  0  0
   -0.8123    1.6190    0.0000 C   0  0  0  0  0  0  0  0  0  0  0  0
   -0.2486    0.2289    0.0000 O   0  0  0  0  0  0  0  0  0  0  0  0
   -2.2980    1.8258    0.0000 C   0  0  0  0  0  0  0  0  0  0  0  0
   -2.8617    3.2158    0.0000 N   0  0  0  0  0  0  0  0  0  0  0  0
   -3.2199    0.6426    0.0000 C   0  0  0  0  0  0  0  0  0  0  0  0
   -4.7056    0.8494    0.0000 C   0  0  0  0  0  0  0  0  0  0  0  0
   -5.6276   -0.3338    0.0000 C   0  0  0  0  0  0  0  0  0  0  0  0
   -7.1132   -0.1270    0.0000 C   0  0  0  0  0  0  0  0  0  0  0  0
   -8.0352   -1.3102    0.0000 N   0  0  0  0  0  0  0  0  0  0  0  0
    2.1590    1.2053    0.0000 C   0  0  0  0  0  0  0  0  0  0  0  0
    3.6447    0.9985    0.0000 O   0  0  0  0  0  0  0  0  0  0  0  0
    1.2371    0.0221    0.0000 N   0  0  0  0  0  0  0  0  0  0  0  0
    1.8008   -1.3680    0.0000 C   0  0  0  0  0  0  0  0  0  0  0  0
    0.8788   -2.5512    0.0000 C   0  0  0  0  0  0  0  0  0  0  0  0
    1.4425   -3.9412    0.0000 C   0  0  0  0  0  0  0  0  0  0  0  0
    0.5206   -5.1244    0.0000 C   0  0  0  0  0  0  0  0  0  0  0  0
    1.0843   -6.5145    0.0000 C   0  0  0  0  0  0  0  0  0  0  0  0
    0.1623   -7.6977    0.0000 N   0  0  0  0  0  0  0  0  0  0  0  0
    3.2865   -1.5748    0.0000 C   0  0  0  0  0  0  0  0  0  0  0  0
    4.2084   -0.3916    0.0000 O   0  0  0  0  0  0  0  0  0  0  0  0
    3.8502   -2.9648    0.0000 O   0  0  0  0  0  0  0  0  0  0  0  0
  1  2  1  0
  2  3  1  0
  3  4  1  6
  3  5  1  0
  5  6  1  1
  6  7  1  0
  7  8  2  0
  7  9  1  0
  9 10  1  6
  9 11  1  0
 11 12  1  0
 12 13  1  0
 13 14  1  0
 14 15  1  0
  5 16  1  0
 16 17  2  0
 16 18  1  0
 18 19  1  0
 19 20  1  6
 20 21  1  0
 21 22  1  0
 22 23  1  0
 23 24  1  0
 19 25  1  0
 25 26  2  0
 25 27  1  0
M  END
