003_peptide
     RDKit          2D

 23 24  0  0  0  0  0  0  0  0999 V2000
    2.4959    1.7061    0.0000 N   0  0  0  0  0  0  0  0  0  0  0  0
    2.1861    0.2385    0.0000 C   0  0  0  0  0  0  0  0  0  0  0  0
    3.3023   -0.7636    0.0000 C   0  0  0  0  0  0  0  0  0  0  0  0
    4.7282   -0.2980    0.0000 C   0  0  0  0  0  0  0  0  0  0  0  0
    5.8444   -1.3001    0.0000 C   0  0  0  0  0  0  0  0  0  0  0  0
    7.2703   -0.8346    0.0000 C   0  0  0  0  0  0  0  0  0  0  0  0
    7.5800    0.6331    0.0000 C   0  0  0  0  0  0  0  0  0  0  0  0
    6.4639    1.6352    0.0000 C   0  0  0  0  0  0  0  0  0  0  0  0
    5.0380    1.1696    0.0000 C   0  0  0  0  0  0  0  0  0  0  0  0
    0.7602   -0.2271    0.0000 C   0  0  0  0  0  0  0  0  0  0  0  0
    0.4504   -1.6948    0.0000 O   0  0  0  0  0  0  0  0  0  0  0  0
   -0.3560    0.7750    0.0000 N   0  0  0  0  0  0  0  0  0  0  0  0
   -1.7819    0.3094    0.0000 C   0  0  0  0  0  0  0  0  0  0  0  0
   -2.8980    1.3115    0.0000 C   0  0  0  0  0  0  0  0  0  0  0  0
   -4.3239    0.8459    0.0000 C   0  0  0  0  0  0  0  0  0  0  0  0
   -5.4401    1.8480    0.0000 C   0  0  0  0  0  0  0  0  0  0  0  0
   -6.8660    1.3825    0.0000 C   0  0  0  0  0  0  0  0  0  0  0  0
   -7.1758   -0.0852    0.0000 C   0  0  0  0  0  0  0  0  0  0  0  0
   -6.0596   -1.0873    0.0000 C   0  0  0  0  0  0  0  0  0  0  0  0
   -4.6337   -0.6217    0.0000 C   0  0  0  0  0  0  0  0  0  0  0  0
   -2.0916   -1.1583    0.0000 C   0  0  0  0  0  0  0  0  0  0  0  0
   -0.9755   -2.1603    0.0000 O   0  0  0  0  0  0  0  0  0  0  0  0
   -3.5175   -1.6238    0.0000 O   0  0  0  0  0  0  0  0  0  0  0  0
  2  1  1  1
  2  3  1  0
  3  4  1  0
  4  5  2  0
  5  6  1  0
  6  7  2  0
  7  8  1  0
  8  9  2  0
  2 10  1  0
 10 11  2  0
 10 12  1  0
 12 13  1  0
 13 14  1  6
 14 15  1  0
 15 16  2  0
 16 17  1  0
 17 18  2  0
 18 19  1  0
 19 20  2  0
 13 21  1  0
 21 22  2  0
 21 23  1  0
  9  4  1  0
 20 15  1  0
M  END
