004_peptide
     RDKit          2D

 19 18  0  0  0  0  0  0  0  0999 V2000
   -4.3828    1.9958    0.0000 N   0  0  0  0  0  0  0  0  0  0  0  0
   -4.4305    0.4966    0.0000 C   0  0  0  0  0  0  0  0  0  0  0  0
   -5.7528   -0.2117    0.0000 C   0  0  0  0  0  0  0  0  0  0  0  0
   -7.0273    0.5793    0.0000 S   0  0  0  0  0  0  0  0  0  0  0  0
   -3.1560   -0.2944    0.0000 C   0  0  0  0  0  0  0  0  0  0  0  0
   -3.2038   -1.7937    0.0000 O   0  0  0  0  0  0  0  0  0  0  0  0
   -1.8338    0.4139    0.0000 N   0  0  0  0  0  0  0  0  0  0  0  0
   -0.5593   -0.3771    0.0000 C   0  0  0  0  0  0  0  0  0  0  0  0
   -0.6070   -1.8764    0.0000 C   0  0  0  0  0  0  0  0  0  0  0  0
    0.6675   -2.6673    0.0000 S   0  0  0  0  0  0  0  0  0  0  0  0
    0.7630    0.3311    0.0000 C   0  0  0  0  0  0  0  0  0  0  0  0
    0.8108    1.8304    0.0000 O   0  0  0  0  0  0  0  0  0  0  0  0
    2.0375   -0.4598    0.0000 N   0  0  0  0  0  0  0  0  0  0  0  0
    3.3598    0.2484    0.0000 C   0  0  0  0  0  0  0  0  0  0  0  0
    3.4075    1.7477    0.0000 C   0  0  0  0  0  0  0  0  0  0  0  0
    4.7298    2.4559    0.0000 S   0  0  0  0  0  0  0  0  0  0  0  0
    4.6343   -0.5425    0.0000 C   0  0  0  0  0  0  0  0  0  0  0  0
    4.5865   -2.0418    0.0000 O   0  0  0  0  0  0  0  0  0  0  0  0
    5.9565    0.1657    0.0000 O   0  0  0  0  0  0  0  0  0  0  0  0
  2  1  1  6
  2  3  1  0
  3  4  1  0
  2  5  1  0
  5  6  2  0
  5  7  1  0
  7  8  1  0
  8  9  1  6
  9 10  1  0
  8 11  1  0
 11 12  2  0
 11 13  1  0
 13 14  1  0
 14 15  1  1
 15 16  1  0
 14 17  1  0
 17 18  2  0
 17 19  1  0
M  END
