005_peptide
     RDKit          2D

 27 29  0  0  0  0  0  0  0  0999 V2000
    1.7495   -2.2514    0.0000 N   0  0  0  0  0  0  0  0  0  0  0  0
    1.5706   -0.7621    0.0000 C   0  0  0  0  0  0  0  0  0  0  0  0
    2.7710    0.1375    0.0000 C   0  0  0  0  0  0  0  0  0  0  0  0
    4.1502   -0.4522    0.0000 C   0  0  0  0  0  0  0  0  0  0  0  0
    4.4837   -1.9147    0.0000 C   0  0  0  0  0  0  0  0  0  0  0  0
    5.9777   -2.0493    0.0000 N   0  0  0  0  0  0  0  0  0  0  0  0
    6.5674   -0.6701    0.0000 C   0  0  0  0  0  0  0  0  0  0  0  0
    7.9870   -0.1855    0.0000 C   0  0  0  0  0  0  0  0  0  0  0  0
    8.2771    1.2862    0.0000 C   0  0  0  0  0  0  0  0  0  0  0  0
    7.1476    2.2732    0.0000 C   0  0  0  0  0  0  0  0  0  0  0  0
    5.7280    1.7886    0.0000 C   0  0  0  0  0  0  0  0  0  0  0  0
    5.4379    0.3169    0.0000 C   0  0  0  0  0  0  0  0  0  0  0  0
    0.1914   -0.1723    0.0000 C   0  0  0  0  0  0  0  0  0  0  0  0
    0.0125    1.3170    0.0000 O   0  0  0  0  0  0  0  0  0  0  0  0
   -1.0089   -1.0719    0.0000 N   0  0  0  0  0  0  0  0  0  0  0  0
   -2.3881   -0.4822    0.0000 C   0  0  0  0  0  0  0  0  0  0  0  0
   -3.5884   -1.3817    0.0000 C   0  0  0  0  0  0  0  0  0  0  0  0
   -4.9676   -0.7920    0.0000 C   0  0  0  0  0  0  0  0  0  0  0  0
   -5.1465    0.6973    0.0000 C   0  0  0  0  0  0  0  0  0  0  0  0
   -6.5257    1.2870    0.0000 C   0  0  0  0  0  0  0  0  0  0  0  0
   -7.7261    0.3875    0.0000 C   0  0  0  0  0  0  0  0  0  0  0  0
   -9.1053    0.9772    0.0000 O   0  0  0  0  0  0  0  0  0  0  0  0
   -7.5472   -1.1018    0.0000 C   0  0  0  0  0  0  0  0  0  0  0  0
   -6.1680   -1.6916    0.0000 C   0  0  0  0  0  0  0  0  0  0  0  0
   -2.5670    1.0071    0.0000 C   0  0  0  0  0  0  0  0  0  0  0  0
   -1.3667    1.9067    0.0000 O   0  0  0  0  0  0  0  0  0  0  0  0
   -3.9462    1.5969    0.0000 O   0  0  0  0  0  0  0  0  0  0  0  0
  2  1  1  6
  2  3  1  0
  3  4  1  0
  4  5  2  0
  5  6  1  0
  6  7  1  0
  7  8  2  0
  8  9  1  0
  9 10  2  0
 10 11  1  0
 11 12  2  0
  2 13  1  0
 13 14  2  0
 13 15  1  0
 15 16  1  0
 16 17  1  1
 17 18  1  0
 18 19  1  0
 19 20  2  0
 20 21  1  0
 21 22  1  0
 21 23  2  0
 23 24  1  0
 16 25  1  0
 25 26  2  0
 25 27  1  0
 12  4  1  0
 24 18  2  0
 12  7  1  0
M  END
