010_peptide
     RDKit          2D

 12 12  0  0  0  0  0  0  0  0999 V2000
   -1.2391    1.6805    0.0000 N   0  0  0  0  0  0  0  0  0  0  0  0
   -1.6184    0.2292    0.0000 C   0  0  0  0  0  0  0  0  0  0  0  0
   -0.5513   -0.8249    0.0000 C   0  0  0  0  0  0  0  0  0  0  0  0
    0.8952   -0.4278    0.0000 C   0  0  0  0  0  0  0  0  0  0  0  0
    1.2745    1.0235    0.0000 C   0  0  0  0  0  0  0  0  0  0  0  0
    2.7210    1.4206    0.0000 C   0  0  0  0  0  0  0  0  0  0  0  0
    3.7882    0.3665    0.0000 C   0  0  0  0  0  0  0  0  0  0  0  0
    3.4088   -1.0848    0.0000 C   0  0  0  0  0  0  0  0  0  0  0  0
    1.9624   -1.4819    0.0000 C   0  0  0  0  0  0  0  0  0  0  0  0
   -3.0649   -0.1679    0.0000 C   0  0  0  0  0  0  0  0  0  0  0  0
   -3.4442   -1.6191    0.0000 O   0  0  0  0  0  0  0  0  0  0  0  0
   -4.1321    0.8862    0.0000 O   0  0  0  0  0  0  0  0  0  0  0  0
  2  1  1  1
  2  3  1  0
  3  4  1  0
  4  5  2  0
  5  6  1  0
  6  7  2  0
  7  8  1  0
  8  9  2  0
  2 10  1  0
 10 11  2  0
 10 12  1  0
  9  4  1  0
M  END
