012_peptide
     RDKit          2D

 16 15  0  0  0  0  0  0  0  0999 V2000
    3.1276    2.6183    0.0000 C   0  0  0  0  0  0  0  0  0  0  0  0
    3.3570    1.1360    0.0000 C   0  0  0  0  0  0  0  0  0  0  0  0
    4.7554    0.5934    0.0000 O   0  0  0  0  0  0  0  0  0  0  0  0
    2.1879    0.1962    0.0000 C   0  0  0  0  0  0  0  0  0  0  0  0
    0.7894    0.7388    0.0000 N   0  0  0  0  0  0  0  0  0  0  0  0
   -0.3797   -0.2010    0.0000 C   0  0  0  0  0  0  0  0  0  0  0  0
   -0.1503   -1.6834    0.0000 O   0  0  0  0  0  0  0  0  0  0  0  0
   -1.7781    0.3415    0.0000 C   0  0  0  0  0  0  0  0  0  0  0  0
   -2.0074    1.8239    0.0000 N   0  0  0  0  0  0  0  0  0  0  0  0
   -2.9472   -0.5982    0.0000 C   0  0  0  0  0  0  0  0  0  0  0  0
   -4.3456   -0.0557    0.0000 C   0  0  0  0  0  0  0  0  0  0  0  0
   -4.5750    1.4267    0.0000 O   0  0  0  0  0  0  0  0  0  0  0  0
   -5.5147   -0.9955    0.0000 O   0  0  0  0  0  0  0  0  0  0  0  0
    2.4172   -1.2862    0.0000 C   0  0  0  0  0  0  0  0  0  0  0  0
    3.8156   -1.8288    0.0000 O   0  0  0  0  0  0  0  0  0  0  0  0
    1.2481   -2.2260    0.0000 O   0  0  0  0  0  0  0  0  0  0  0  0
  2  1  1  1
  2  3  1  0
  2  4  1  0
  4  5  1  1
  5  6  1  0
  6  7  2  0
  6  8  1  0
  8  9  1  6
  8 10  1  0
 10 11  1  0
 11 12  2  0
 11 13  1  0
  4 14  1  0
 14 15  2  0
 14 16  1  0
M  END
