013_peptide
     RDKit          2D

 33 34  0  0  0  0  0  0  0  0999 V2000
   -8.2216    3.0177    0.0000 N   0  0  0  0  0  0  0  0  0  0  0  0
   -7.5382    1.6824    0.0000 C   0  0  0  0  0  0  0  0  0  0  0  0
   -6.0401    1.6065    0.0000 C   0  0  0  0  0  0  0  0  0  0  0  0
   -5.3568    0.2712    0.0000 C   0  0  0  0  0  0  0  0  0  0  0  0
   -3.8587    0.1954    0.0000 C   0  0  0  0  0  0  0  0  0  0  0  0
   -3.1753   -1.1399    0.0000 C   0  0  0  0  0  0  0  0  0  0  0  0
   -1.6773   -1.2158    0.0000 N   0  0  0  0  0  0  0  0  0  0  0  0
   -0.9939   -2.5511    0.0000 C   0  0  0  0  0  0  0  0  0  0  0  0
   -1.8086   -3.8105    0.0000 O   0  0  0  0  0  0  0  0  0  0  0  0
    0.5042   -2.6269    0.0000 C   0  0  0  0  0  0  0  0  0  0  0  0
    1.1875   -3.9622    0.0000 C   0  0  0  0  0  0  0  0  0  0  0  0
    2.6856   -4.0381    0.0000 C   0  0  0  0  0  0  0  0  0  0  0  0
    3.3690   -5.3734    0.0000 C   0  0  0  0  0  0  0  0  0  0  0  0
    4.8670   -5.4492    0.0000 C   0  0  0  0  0  0  0  0  0  0  0  0
    5.6818   -4.1898    0.0000 C   0  0  0  0  0  0  0  0  0  0  0  0
    4.9984   -2.8545    0.0000 C   0  0  0  0  0  0  0  0  0  0  0  0
    3.5003   -2.7786    0.0000 C   0  0  0  0  0  0  0  0  0  0  0  0
    1.3189   -1.3675    0.0000 N   0  0  0  0  0  0  0  0  0  0  0  0
    0.6355   -0.0322    0.0000 C   0  0  0  0  0  0  0  0  0  0  0  0
   -0.8625    0.0437    0.0000 O   0  0  0  0  0  0  0  0  0  0  0  0
    1.4503    1.2273    0.0000 C   0  0  0  0  0  0  0  0  0  0  0  0
    2.9484    1.1514    0.0000 N   0  0  0  0  0  0  0  0  0  0  0  0
    0.7669    2.5626    0.0000 C   0  0  0  0  0  0  0  0  0  0  0  0
    1.5817    3.8220    0.0000 C   0  0  0  0  0  0  0  0  0  0  0  0
    3.0797    3.7462    0.0000 C   0  0  0  0  0  0  0  0  0  0  0  0
    3.8945    5.0056    0.0000 C   0  0  0  0  0  0  0  0  0  0  0  0
    3.2111    6.3409    0.0000 C   0  0  0  0  0  0  0  0  0  0  0  0
    4.0258    7.6004    0.0000 O   0  0  0  0  0  0  0  0  0  0  0  0
    1.7130    6.4168    0.0000 C   0  0  0  0  0  0  0  0  0  0  0  0
    0.8983    5.1573    0.0000 C   0  0  0  0  0  0  0  0  0  0  0  0
   -3.9901   -2.3994    0.0000 C   0  0  0  0  0  0  0  0  0  0  0  0
   -3.3067   -3.7347    0.0000 O   0  0  0  0  0  0  0  0  0  0  0  0
   -5.4882   -2.3235    0.0000 O   0  0  0  0  0  0  0  0  0  0  0  0
  1  2  1  0
  2  3  1  0
  3  4  1  0
  4  5  1  0
  6  5  1  6
  6  7  1  0
  7  8  1  0
  8  9  2  0
  8 10  1  0
 10 11  1  1
 11 12  1  0
 12 13  2  0
 13 14  1  0
 14 15  2  0
 15 16  1  0
 16 17  2  0
 10 18  1  0
 18 19  1  0
 19 20  2  0
 19 21  1  0
 21 22  1  6
 21 23  1  0
 23 24  1  0
 24 25  1  0
 25 26  2  0
 26 27  1  0
 27 28  1  0
 27 29  2  0
 29 30  1  0
  6 31  1  0
 31 32  2  0
 31 33  1  0
 17 12  1  0
 30 24  2  0
M  END
