014_peptide
     RDKit          2D

 26 25  0  0  0  0  0  0  0  0999 V2000
    7.1609   -1.5116    0.0000 C   0  0  0  0  0  0  0  0  0  0  0  0
    6.0778   -2.5493    0.0000 C   0  0  0  0  0  0  0  0  0  0  0  0
    4.6376   -2.1302    0.0000 C   0  0  0  0  0  0  0  0  0  0  0  0
    3.5545   -3.1679    0.0000 C   0  0  0  0  0  0  0  0  0  0  0  0
    4.2804   -0.6733    0.0000 C   0  0  0  0  0  0  0  0  0  0  0  0
    5.3636    0.3644    0.0000 N   0  0  0  0  0  0  0  0  0  0  0  0
    2.8402   -0.2542    0.0000 C   0  0  0  0  0  0  0  0  0  0  0  0
    1.7571   -1.2919    0.0000 O   0  0  0  0  0  0  0  0  0  0  0  0
    2.4831    1.2027    0.0000 N   0  0  0  0  0  0  0  0  0  0  0  0
    1.0428    1.6218    0.0000 C   0  0  0  0  0  0  0  0  0  0  0  0
   -0.0403    0.5841    0.0000 C   0  0  0  0  0  0  0  0  0  0  0  0
    0.3168   -0.8727    0.0000 O   0  0  0  0  0  0  0  0  0  0  0  0
   -1.4806    1.0033    0.0000 N   0  0  0  0  0  0  0  0  0  0  0  0
   -2.5637   -0.0345    0.0000 C   0  0  0  0  0  0  0  0  0  0  0  0
   -4.0039    0.3847    0.0000 C   0  0  0  0  0  0  0  0  0  0  0  0
   -5.0870   -0.6530    0.0000 C   0  0  0  0  0  0  0  0  0  0  0  0
   -6.5273   -0.2339    0.0000 C   0  0  0  0  0  0  0  0  0  0  0  0
   -7.6104   -1.2716    0.0000 C   0  0  0  0  0  0  0  0  0  0  0  0
   -9.0506   -0.8525    0.0000 N   0  0  0  0  0  0  0  0  0  0  0  0
   -2.2065   -1.4913    0.0000 C   0  0  0  0  0  0  0  0  0  0  0  0
   -0.7663   -1.9105    0.0000 O   0  0  0  0  0  0  0  0  0  0  0  0
   -3.2896   -2.5290    0.0000 O   0  0  0  0  0  0  0  0  0  0  0  0
    0.6857    3.0787    0.0000 C   0  0  0  0  0  0  0  0  0  0  0  0
   -0.7546    3.4979    0.0000 C   0  0  0  0  0  0  0  0  0  0  0  0
    1.7688    4.1164    0.0000 C   0  0  0  0  0  0  0  0  0  0  0  0
    1.4116    5.5733    0.0000 C   0  0  0  0  0  0  0  0  0  0  0  0
  1  2  1  0
  2  3  1  0
  3  4  1  6
  3  5  1  0
  5  6  1  1
  5  7  1  0
  7  8  2  0
  7  9  1  0
 10  9  1  6
 10 11  1  0
 11 12  2  0
 11 13  1  0
 13 14  1  0
 14 15  1  6
 15 16  1  0
 16 17  1  0
 17 18  1  0
 18 19  1  0
 14 20  1  0
 20 21  2  0
 20 22  1  0
 10 23  1  0
 23 24  1  1
 23 25  1  0
 25 26  1  0
M  END
