015_peptide
     RDKit          2D

 20 20  0  0  0  0  0  0  0  0999 V2000
   -5.1354    3.1701    0.0000 C   0  0  0  0  0  0  0  0  0  0  0  0
   -3.9512    2.2494    0.0000 C   0  0  0  0  0  0  0  0  0  0  0  0
   -4.1565    0.7635    0.0000 C   0  0  0  0  0  0  0  0  0  0  0  0
   -5.5459    0.1983    0.0000 C   0  0  0  0  0  0  0  0  0  0  0  0
   -2.9723   -0.1572    0.0000 C   0  0  0  0  0  0  0  0  0  0  0  0
   -1.5829    0.4080    0.0000 N   0  0  0  0  0  0  0  0  0  0  0  0
   -0.3987   -0.5128    0.0000 C   0  0  0  0  0  0  0  0  0  0  0  0
   -0.6040   -1.9987    0.0000 O   0  0  0  0  0  0  0  0  0  0  0  0
    0.9908    0.0524    0.0000 C   0  0  0  0  0  0  0  0  0  0  0  0
    1.1961    1.5383    0.0000 N   0  0  0  0  0  0  0  0  0  0  0  0
    2.1749   -0.8683    0.0000 C   0  0  0  0  0  0  0  0  0  0  0  0
    3.5644   -0.3032    0.0000 C   0  0  0  0  0  0  0  0  0  0  0  0
    3.7697    1.1827    0.0000 C   0  0  0  0  0  0  0  0  0  0  0  0
    5.1591    1.7479    0.0000 C   0  0  0  0  0  0  0  0  0  0  0  0
    6.3433    0.8272    0.0000 C   0  0  0  0  0  0  0  0  0  0  0  0
    6.1380   -0.6587    0.0000 C   0  0  0  0  0  0  0  0  0  0  0  0
    4.7486   -1.2239    0.0000 C   0  0  0  0  0  0  0  0  0  0  0  0
   -3.1776   -1.6431    0.0000 C   0  0  0  0  0  0  0  0  0  0  0  0
   -1.9934   -2.5638    0.0000 O   0  0  0  0  0  0  0  0  0  0  0  0
   -4.5671   -2.2083    0.0000 O   0  0  0  0  0  0  0  0  0  0  0  0
  1  2  1  0
  2  3  1  0
  3  4  1  1
  3  5  1  0
  5  6  1  6
  6  7  1  0
  7  8  2  0
  7  9  1  0
  9 10  1  1
  9 11  1  0
 11 12  1  0
 12 13  2  0
 13 14  1  0
 14 15  2  0
 15 16  1  0
 16 17  2  0
  5 18  1  0
 18 19  2  0
 18 20  1  0
 17 12  1  0
M  END
