019_peptide
     RDKit          2D

 24 23  0  0  0  0  0  0  0  0999 V2000
    0.0943    4.6177    0.0000 C   0  0  0  0  0  0  0  0  0  0  0  0
    1.5855    4.4553    0.0000 C   0  0  0  0  0  0  0  0  0  0  0  0
    2.1904    3.0827    0.0000 C   0  0  0  0  0  0  0  0  0  0  0  0
    3.6816    2.9203    0.0000 C   0  0  0  0  0  0  0  0  0  0  0  0
    1.3042    1.8725    0.0000 C   0  0  0  0  0  0  0  0  0  0  0  0
   -0.1870    2.0349    0.0000 N   0  0  0  0  0  0  0  0  0  0  0  0
   -1.0733    0.8247    0.0000 C   0  0  0  0  0  0  0  0  0  0  0  0
   -0.4683   -0.5479    0.0000 O   0  0  0  0  0  0  0  0  0  0  0  0
   -2.5644    0.9871    0.0000 C   0  0  0  0  0  0  0  0  0  0  0  0
   -3.1694    2.3597    0.0000 N   0  0  0  0  0  0  0  0  0  0  0  0
   -3.4507   -0.2231    0.0000 C   0  0  0  0  0  0  0  0  0  0  0  0
   -4.9419   -0.0607    0.0000 C   0  0  0  0  0  0  0  0  0  0  0  0
   -5.8281   -1.2709    0.0000 S   0  0  0  0  0  0  0  0  0  0  0  0
   -7.3193   -1.1085    0.0000 C   0  0  0  0  0  0  0  0  0  0  0  0
    1.9091    0.4999    0.0000 C   0  0  0  0  0  0  0  0  0  0  0  0
    3.4003    0.3375    0.0000 O   0  0  0  0  0  0  0  0  0  0  0  0
    1.0229   -0.7103    0.0000 N   0  0  0  0  0  0  0  0  0  0  0  0
    1.6278   -2.0829    0.0000 C   0  0  0  0  0  0  0  0  0  0  0  0
    3.1190   -2.2453    0.0000 C   0  0  0  0  0  0  0  0  0  0  0  0
    4.0052   -1.0351    0.0000 O   0  0  0  0  0  0  0  0  0  0  0  0
    3.7239   -3.6179    0.0000 O   0  0  0  0  0  0  0  0  0  0  0  0
    0.7416   -3.2931    0.0000 C   0  0  0  0  0  0  0  0  0  0  0  0
    1.3465   -4.6657    0.0000 C   0  0  0  0  0  0  0  0  0  0  0  0
   -0.7496   -3.1307    0.0000 O   0  0  0  0  0  0  0  0  0  0  0  0
  1  2  1  0
  2  3  1  0
  3  4  1  6
  3  5  1  0
  5  6  1  1
  6  7  1  0
  7  8  2  0
  7  9  1  0
  9 10  1  6
  9 11  1  0
 11 12  1  0
 12 13  1  0
 13 14  1  0
  5 15  1  0
 15 16  2  0
 15 17  1  0
 18 17  1  6
 18 19  1  0
 19 20  2  0
 19 21  1  0
 18 22  1  0
 22 23  1  1
 22 24  1  0
M  END
