023_peptide
     RDKit          2D

 19 18  0  0  0  0  0  0  0  0999 V2000
    6.9766    2.8352    0.0000 N   0  0  0  0  0  0  0  0  0  0  0  0
    5.5230    2.4649    0.0000 C   0  0  0  0  0  0  0  0  0  0  0  0
    5.1168    1.0210    0.0000 C   0  0  0  0  0  0  0  0  0  0  0  0
    3.6632    0.6508    0.0000 C   0  0  0  0  0  0  0  0  0  0  0  0
    3.2571   -0.7932    0.0000 C   0  0  0  0  0  0  0  0  0  0  0  0
    1.8035   -1.1634    0.0000 C   0  0  0  0  0  0  0  0  0  0  0  0
    0.7560   -0.0897    0.0000 N   0  0  0  0  0  0  0  0  0  0  0  0
   -0.6976   -0.4599    0.0000 C   0  0  0  0  0  0  0  0  0  0  0  0
   -1.1037   -1.9038    0.0000 O   0  0  0  0  0  0  0  0  0  0  0  0
   -1.7450    0.6139    0.0000 C   0  0  0  0  0  0  0  0  0  0  0  0
   -1.3388    2.0578    0.0000 N   0  0  0  0  0  0  0  0  0  0  0  0
   -3.1986    0.2437    0.0000 C   0  0  0  0  0  0  0  0  0  0  0  0
   -4.2460    1.3174    0.0000 C   0  0  0  0  0  0  0  0  0  0  0  0
   -5.6996    0.9472    0.0000 C   0  0  0  0  0  0  0  0  0  0  0  0
   -6.1058   -0.4968    0.0000 O   0  0  0  0  0  0  0  0  0  0  0  0
   -6.7470    2.0209    0.0000 O   0  0  0  0  0  0  0  0  0  0  0  0
    1.3973   -2.6074    0.0000 C   0  0  0  0  0  0  0  0  0  0  0  0
    2.4447   -3.6811    0.0000 O   0  0  0  0  0  0  0  0  0  0  0  0
   -0.0563   -2.9776    0.0000 O   0  0  0  0  0  0  0  0  0  0  0  0
  1  2  1  0
  2  3  1  0
  3  4  1  0
  4  5  1  0
  6  5  1  1
  6  7  1  0
  7  8  1  0
  8  9  2  0
  8 10  1  0
 10 11  1  6
 10 12  1  0
 12 13  1  0
 13 14  1  0
 14 15  2  0
 14 16  1  0
  6 17  1  0
 17 18  2  0
 17 19  1  0
M  END
