024_peptide
     RDKit          2D

 17 16  0  0  0  0  0  0  0  0999 V2000
    4.7772    1.9346    0.0000 C   0  0  0  0  0  0  0  0  0  0  0  0
    4.7473    0.4349    0.0000 C   0  0  0  0  0  0  0  0  0  0  0  0
    3.4336   -0.2891    0.0000 C   0  0  0  0  0  0  0  0  0  0  0  0
    3.4037   -1.7888    0.0000 C   0  0  0  0  0  0  0  0  0  0  0  0
    2.1497    0.4867    0.0000 C   0  0  0  0  0  0  0  0  0  0  0  0
    2.1796    1.9864    0.0000 N   0  0  0  0  0  0  0  0  0  0  0  0
    0.8360   -0.2373    0.0000 C   0  0  0  0  0  0  0  0  0  0  0  0
    0.8061   -1.7370    0.0000 O   0  0  0  0  0  0  0  0  0  0  0  0
   -0.4478    0.5384    0.0000 N   0  0  0  0  0  0  0  0  0  0  0  0
   -1.7616   -0.1855    0.0000 C   0  0  0  0  0  0  0  0  0  0  0  0
   -1.7915   -1.6852    0.0000 C   0  0  0  0  0  0  0  0  0  0  0  0
   -0.5076   -2.4610    0.0000 O   0  0  0  0  0  0  0  0  0  0  0  0
   -3.1052   -2.4092    0.0000 O   0  0  0  0  0  0  0  0  0  0  0  0
   -3.0454    0.5902    0.0000 C   0  0  0  0  0  0  0  0  0  0  0  0
   -4.3591   -0.1337    0.0000 C   0  0  0  0  0  0  0  0  0  0  0  0
   -3.0155    2.0899    0.0000 C   0  0  0  0  0  0  0  0  0  0  0  0
   -4.2993    2.8657    0.0000 C   0  0  0  0  0  0  0  0  0  0  0  0
  1  2  1  0
  2  3  1  0
  3  4  1  6
  3  5  1  0
  5  6  1  1
  5  7  1  0
  7  8  2  0
  7  9  1  0
 10  9  1  6
 10 11  1  0
 11 12  2  0
 11 13  1  0
 10 14  1  0
 14 15  1  1
 14 16  1  0
 16 17  1  0
M  END
