025_peptide
     RDKit          2D

 22 21  0  0  0  0  0  0  0  0999 V2000
   -5.9604   -1.5798    0.0000 C   0  0  0  0  0  0  0  0  0  0  0  0
   -4.4703   -1.4078    0.0000 C   0  0  0  0  0  0  0  0  0  0  0  0
   -3.5762   -2.6122    0.0000 C   0  0  0  0  0  0  0  0  0  0  0  0
   -3.8743   -0.0313    0.0000 C   0  0  0  0  0  0  0  0  0  0  0  0
   -4.7683    1.1731    0.0000 N   0  0  0  0  0  0  0  0  0  0  0  0
   -2.3842    0.1408    0.0000 C   0  0  0  0  0  0  0  0  0  0  0  0
   -1.4901   -1.0637    0.0000 O   0  0  0  0  0  0  0  0  0  0  0  0
   -1.7881    1.5173    0.0000 N   0  0  0  0  0  0  0  0  0  0  0  0
   -0.2980    1.6893    0.0000 C   0  0  0  0  0  0  0  0  0  0  0  0
    0.5960    0.4849    0.0000 C   0  0  0  0  0  0  0  0  0  0  0  0
   -0.0000   -0.8916    0.0000 O   0  0  0  0  0  0  0  0  0  0  0  0
    2.0861    0.6570    0.0000 N   0  0  0  0  0  0  0  0  0  0  0  0
    2.9802   -0.5475    0.0000 C   0  0  0  0  0  0  0  0  0  0  0  0
    2.3842   -1.9240    0.0000 C   0  0  0  0  0  0  0  0  0  0  0  0
    0.8941   -2.0960    0.0000 O   0  0  0  0  0  0  0  0  0  0  0  0
    3.2782   -3.1284    0.0000 O   0  0  0  0  0  0  0  0  0  0  0  0
    4.4703   -0.3754    0.0000 C   0  0  0  0  0  0  0  0  0  0  0  0
    5.3644   -1.5798    0.0000 C   0  0  0  0  0  0  0  0  0  0  0  0
    5.0663    1.0011    0.0000 C   0  0  0  0  0  0  0  0  0  0  0  0
    0.2980    3.0658    0.0000 C   0  0  0  0  0  0  0  0  0  0  0  0
    1.7881    3.2379    0.0000 C   0  0  0  0  0  0  0  0  0  0  0  0
   -0.5960    4.2703    0.0000 O   0  0  0  0  0  0  0  0  0  0  0  0
  1  2  1  0
  2  3  1  0
  2  4  1  0
  4  5  1  6
  4  6  1  0
  6  7  2  0
  6  8  1  0
  9  8  1  1
  9 10  1  0
 10 11  2  0
 10 12  1  0
 13 12  1  1
 13 14  1  0
 14 15  2  0
 14 16  1  0
 13 17  1  0
 17 18  1  0
 17 19  1  0
  9 20  1  0
 20 21  1  6
 20 22  1  0
M  END
