026_peptide
     RDKit          2D

 18 17  0  0  0  0  0  0  0  0999 V2000
    2.5843    2.8714    0.0000 C   0  0  0  0  0  0  0  0  0  0  0  0
    3.9055    2.1612    0.0000 C   0  0  0  0  0  0  0  0  0  0  0  0
    3.9510    0.6618    0.0000 C   0  0  0  0  0  0  0  0  0  0  0  0
    5.2722   -0.0484    0.0000 C   0  0  0  0  0  0  0  0  0  0  0  0
    2.6753   -0.1272    0.0000 C   0  0  0  0  0  0  0  0  0  0  0  0
    1.3541    0.5830    0.0000 N   0  0  0  0  0  0  0  0  0  0  0  0
    0.0785   -0.2060    0.0000 C   0  0  0  0  0  0  0  0  0  0  0  0
    0.1240   -1.7054    0.0000 O   0  0  0  0  0  0  0  0  0  0  0  0
   -1.2427    0.5042    0.0000 C   0  0  0  0  0  0  0  0  0  0  0  0
   -1.2882    2.0035    0.0000 N   0  0  0  0  0  0  0  0  0  0  0  0
   -2.5184   -0.2849    0.0000 C   0  0  0  0  0  0  0  0  0  0  0  0
   -3.8396    0.4254    0.0000 C   0  0  0  0  0  0  0  0  0  0  0  0
   -5.1153   -0.3637    0.0000 C   0  0  0  0  0  0  0  0  0  0  0  0
   -6.4365    0.3465    0.0000 C   0  0  0  0  0  0  0  0  0  0  0  0
   -7.7122   -0.4425    0.0000 N   0  0  0  0  0  0  0  0  0  0  0  0
    2.7208   -1.6265    0.0000 C   0  0  0  0  0  0  0  0  0  0  0  0
    4.0420   -2.3368    0.0000 O   0  0  0  0  0  0  0  0  0  0  0  0
    1.4452   -2.4156    0.0000 O   0  0  0  0  0  0  0  0  0  0  0  0
  1  2  1  0
  2  3  1  0
  3  4  1  6
  3  5  1  0
  5  6  1  1
  6  7  1  0
  7  8  2  0
  7  9  1  0
  9 10  1  6
  9 11  1  0
 11 12  1  0
 12 13  1  0
 13 14  1  0
 14 15  1  0
  5 16  1  0
 16 17  2  0
 16 18  1  0
M  END
