027_peptide
     RDKit          2D

 23 22  0  0  0  0  0  0  0  0999 V2000
    3.6125   -2.8433    0.0000 C   0  0  0  0  0  0  0  0  0  0  0  0
    2.4834   -3.8307    0.0000 C   0  0  0  0  0  0  0  0  0  0  0  0
    1.0637   -3.3465    0.0000 C   0  0  0  0  0  0  0  0  0  0  0  0
   -0.0655   -4.3339    0.0000 C   0  0  0  0  0  0  0  0  0  0  0  0
    0.7731   -1.8749    0.0000 C   0  0  0  0  0  0  0  0  0  0  0  0
    1.9023   -0.8875    0.0000 N   0  0  0  0  0  0  0  0  0  0  0  0
    1.6118    0.5841    0.0000 C   0  0  0  0  0  0  0  0  0  0  0  0
    0.1921    1.0683    0.0000 O   0  0  0  0  0  0  0  0  0  0  0  0
    2.7410    1.5715    0.0000 C   0  0  0  0  0  0  0  0  0  0  0  0
    4.1607    1.0873    0.0000 N   0  0  0  0  0  0  0  0  0  0  0  0
    2.4504    3.0431    0.0000 C   0  0  0  0  0  0  0  0  0  0  0  0
    3.5796    4.0305    0.0000 C   0  0  0  0  0  0  0  0  0  0  0  0
    1.0307    3.5273    0.0000 C   0  0  0  0  0  0  0  0  0  0  0  0
   -0.6466   -1.3907    0.0000 C   0  0  0  0  0  0  0  0  0  0  0  0
   -1.7757   -2.3781    0.0000 O   0  0  0  0  0  0  0  0  0  0  0  0
   -0.9371    0.0809    0.0000 N   0  0  0  0  0  0  0  0  0  0  0  0
   -2.3568    0.5651    0.0000 C   0  0  0  0  0  0  0  0  0  0  0  0
   -3.4860   -0.4223    0.0000 C   0  0  0  0  0  0  0  0  0  0  0  0
   -3.1954   -1.8939    0.0000 O   0  0  0  0  0  0  0  0  0  0  0  0
   -4.9057    0.0619    0.0000 O   0  0  0  0  0  0  0  0  0  0  0  0
   -2.6473    2.0367    0.0000 C   0  0  0  0  0  0  0  0  0  0  0  0
   -4.0670    2.5209    0.0000 C   0  0  0  0  0  0  0  0  0  0  0  0
   -1.5181    3.0241    0.0000 O   0  0  0  0  0  0  0  0  0  0  0  0
  1  2  1  0
  2  3  1  0
  3  4  1  6
  3  5  1  0
  5  6  1  1
  6  7  1  0
  7  8  2  0
  7  9  1  0
  9 10  1  6
  9 11  1  0
 11 12  1  0
 11 13  1  0
  5 14  1  0
 14 15  2  0
 14 16  1  0
 17 16  1  6
 17 18  1  0
 18 19  2  0
 18 20  1  0
 17 21  1  0
 21 22  1  1
 21 23  1  0
M  END
