029_peptide
     RDKit          2D

 25 24  0  0  0  0  0  0  0  0999 V2000
   -2.8362    4.1389    0.0000 C   0  0  0  0  0  0  0  0  0  0  0  0
   -1.5148    4.8487    0.0000 C   0  0  0  0  0  0  0  0  0  0  0  0
   -0.2394    4.0592    0.0000 C   0  0  0  0  0  0  0  0  0  0  0  0
    1.0821    4.7691    0.0000 C   0  0  0  0  0  0  0  0  0  0  0  0
   -0.2854    2.5600    0.0000 C   0  0  0  0  0  0  0  0  0  0  0  0
   -1.6068    1.8501    0.0000 N   0  0  0  0  0  0  0  0  0  0  0  0
   -1.6528    0.3509    0.0000 C   0  0  0  0  0  0  0  0  0  0  0  0
   -0.3774   -0.4386    0.0000 O   0  0  0  0  0  0  0  0  0  0  0  0
   -2.9742   -0.3590    0.0000 C   0  0  0  0  0  0  0  0  0  0  0  0
   -4.2496    0.4305    0.0000 N   0  0  0  0  0  0  0  0  0  0  0  0
   -3.0202   -1.8583    0.0000 C   0  0  0  0  0  0  0  0  0  0  0  0
   -4.3416   -2.5681    0.0000 C   0  0  0  0  0  0  0  0  0  0  0  0
   -4.3876   -4.0674    0.0000 S   0  0  0  0  0  0  0  0  0  0  0  0
   -5.7091   -4.7772    0.0000 C   0  0  0  0  0  0  0  0  0  0  0  0
    0.9901    1.7705    0.0000 C   0  0  0  0  0  0  0  0  0  0  0  0
    2.3115    2.4803    0.0000 O   0  0  0  0  0  0  0  0  0  0  0  0
    0.9441    0.2712    0.0000 N   0  0  0  0  0  0  0  0  0  0  0  0
    2.2195   -0.5183    0.0000 C   0  0  0  0  0  0  0  0  0  0  0  0
    2.1735   -2.0176    0.0000 C   0  0  0  0  0  0  0  0  0  0  0  0
    3.4489   -2.8071    0.0000 C   0  0  0  0  0  0  0  0  0  0  0  0
    3.4029   -4.3064    0.0000 S   0  0  0  0  0  0  0  0  0  0  0  0
    4.6783   -5.0959    0.0000 C   0  0  0  0  0  0  0  0  0  0  0  0
    3.5409    0.1915    0.0000 C   0  0  0  0  0  0  0  0  0  0  0  0
    3.5869    1.6908    0.0000 O   0  0  0  0  0  0  0  0  0  0  0  0
    4.8163   -0.5980    0.0000 O   0  0  0  0  0  0  0  0  0  0  0  0
  1  2  1  0
  2  3  1  0
  3  4  1  6
  3  5  1  0
  5  6  1  1
  6  7  1  0
  7  8  2  0
  7  9  1  0
  9 10  1  6
  9 11  1  0
 11 12  1  0
 12 13  1  0
 13 14  1  0
  5 15  1  0
 15 16  2  0
 15 17  1  0
 17 18  1  0
 18 19  1  6
 19 20  1  0
 20 21  1  0
 21 22  1  0
 18 23  1  0
 23 24  2  0
 23 25  1  0
M  END
