030_peptide
     RDKit          2D

 29 29  0  0  0  0  0  0  0  0999 V2000
   -6.2425    2.3579    0.0000 C   0  0  0  0  0  0  0  0  0  0  0  0
   -4.8466    1.8091    0.0000 C   0  0  0  0  0  0  0  0  0  0  0  0
   -3.6733    2.7436    0.0000 C   0  0  0  0  0  0  0  0  0  0  0  0
   -3.8960    4.2270    0.0000 C   0  0  0  0  0  0  0  0  0  0  0  0
   -2.2773    2.1948    0.0000 C   0  0  0  0  0  0  0  0  0  0  0  0
   -1.1040    3.1294    0.0000 N   0  0  0  0  0  0  0  0  0  0  0  0
   -2.0546    0.7115    0.0000 C   0  0  0  0  0  0  0  0  0  0  0  0
   -3.2278   -0.2231    0.0000 O   0  0  0  0  0  0  0  0  0  0  0  0
   -0.6586    0.1626    0.0000 N   0  0  0  0  0  0  0  0  0  0  0  0
   -0.4359   -1.3207    0.0000 C   0  0  0  0  0  0  0  0  0  0  0  0
   -1.6091   -2.2553    0.0000 C   0  0  0  0  0  0  0  0  0  0  0  0
   -3.0051   -1.7065    0.0000 C   0  0  0  0  0  0  0  0  0  0  0  0
   -4.1784   -2.6410    0.0000 C   0  0  0  0  0  0  0  0  0  0  0  0
   -5.5744   -2.0922    0.0000 C   0  0  0  0  0  0  0  0  0  0  0  0
   -6.7477   -3.0268    0.0000 N   0  0  0  0  0  0  0  0  0  0  0  0
    0.9601   -1.8695    0.0000 C   0  0  0  0  0  0  0  0  0  0  0  0
    1.1828   -3.3529    0.0000 O   0  0  0  0  0  0  0  0  0  0  0  0
    2.1334   -0.9350    0.0000 N   0  0  0  0  0  0  0  0  0  0  0  0
    3.5294   -1.4838    0.0000 C   0  0  0  0  0  0  0  0  0  0  0  0
    4.7027   -0.5492    0.0000 C   0  0  0  0  0  0  0  0  0  0  0  0
    4.4800    0.9341    0.0000 C   0  0  0  0  0  0  0  0  0  0  0  0
    3.0840    1.4829    0.0000 C   0  0  0  0  0  0  0  0  0  0  0  0
    2.8613    2.9663    0.0000 C   0  0  0  0  0  0  0  0  0  0  0  0
    4.0346    3.9009    0.0000 C   0  0  0  0  0  0  0  0  0  0  0  0
    5.4306    3.3521    0.0000 C   0  0  0  0  0  0  0  0  0  0  0  0
    5.6533    1.8687    0.0000 C   0  0  0  0  0  0  0  0  0  0  0  0
    3.7521   -2.9672    0.0000 C   0  0  0  0  0  0  0  0  0  0  0  0
    5.1481   -3.5160    0.0000 O   0  0  0  0  0  0  0  0  0  0  0  0
    2.5788   -3.9017    0.0000 O   0  0  0  0  0  0  0  0  0  0  0  0
  1  2  1  0
  2  3  1  0
  3  4  1  6
  3  5  1  0
  5  6  1  6
  5  7  1  0
  7  8  2  0
  7  9  1  0
  9 10  1  0
 10 11  1  6
 11 12  1  0
 12 13  1  0
 13 14  1  0
 14 15  1  0
 10 16  1  0
 16 17  2  0
 16 18  1  0
 18 19  1  0
 19 20  1  1
 20 21  1  0
 21 22  2  0
 22 23  1  0
 23 24  2  0
 24 25  1  0
 25 26  2  0
 19 27  1  0
 27 28  2  0
 27 29  1  0
 26 21  1  0
M  END
