031_peptide
     RDKit          2D

 24 23  0  0  0  0  0  0  0  0999 V2000
    6.5819   -0.4275    0.0000 C   0  0  0  0  0  0  0  0  0  0  0  0
    5.7188   -1.6543    0.0000 C   0  0  0  0  0  0  0  0  0  0  0  0
    4.2248   -1.5202    0.0000 C   0  0  0  0  0  0  0  0  0  0  0  0
    3.3617   -2.7471    0.0000 C   0  0  0  0  0  0  0  0  0  0  0  0
    3.5939   -0.1594    0.0000 C   0  0  0  0  0  0  0  0  0  0  0  0
    4.4570    1.0674    0.0000 N   0  0  0  0  0  0  0  0  0  0  0  0
    2.0999   -0.0254    0.0000 C   0  0  0  0  0  0  0  0  0  0  0  0
    1.2368   -1.2522    0.0000 O   0  0  0  0  0  0  0  0  0  0  0  0
    1.4690    1.3355    0.0000 N   0  0  0  0  0  0  0  0  0  0  0  0
   -0.0250    1.4695    0.0000 C   0  0  0  0  0  0  0  0  0  0  0  0
   -0.8881    0.2427    0.0000 C   0  0  0  0  0  0  0  0  0  0  0  0
   -0.2572   -1.1181    0.0000 O   0  0  0  0  0  0  0  0  0  0  0  0
   -2.3821    0.3767    0.0000 N   0  0  0  0  0  0  0  0  0  0  0  0
   -3.2452   -0.8501    0.0000 C   0  0  0  0  0  0  0  0  0  0  0  0
   -2.6143   -2.2109    0.0000 C   0  0  0  0  0  0  0  0  0  0  0  0
   -1.1203   -2.3450    0.0000 O   0  0  0  0  0  0  0  0  0  0  0  0
   -3.4773   -3.4378    0.0000 O   0  0  0  0  0  0  0  0  0  0  0  0
   -4.7392   -0.7161    0.0000 C   0  0  0  0  0  0  0  0  0  0  0  0
   -5.6023   -1.9429    0.0000 C   0  0  0  0  0  0  0  0  0  0  0  0
   -5.3701    0.6448    0.0000 O   0  0  0  0  0  0  0  0  0  0  0  0
   -0.6560    2.8304    0.0000 C   0  0  0  0  0  0  0  0  0  0  0  0
   -2.1500    2.9644    0.0000 C   0  0  0  0  0  0  0  0  0  0  0  0
    0.2071    4.0572    0.0000 C   0  0  0  0  0  0  0  0  0  0  0  0
   -0.4238    5.4181    0.0000 C   0  0  0  0  0  0  0  0  0  0  0  0
  1  2  1  0
  2  3  1  0
  3  4  1  6
  3  5  1  0
  5  6  1  1
  5  7  1  0
  7  8  2  0
  7  9  1  0
 10  9  1  6
 10 11  1  0
 11 12  2  0
 11 13  1  0
 14 13  1  6
 14 15  1  0
 15 16  2  0
 15 17  1  0
 14 18  1  0
 18 19  1  1
 18 20  1  0
 10 21  1  0
 21 22  1  1
 21 23  1  0
 23 24  1  0
M  END
