033_peptide
     RDKit          2D

 15 16  0  0  0  0  0  0  0  0999 V2000
   -2.6183   -1.7023    0.0000 N   0  0  0  0  0  0  0  0  0  0  0  0
   -2.5622   -0.2034    0.0000 C   0  0  0  0  0  0  0  0  0  0  0  0
   -1.2360    0.4975    0.0000 C   0  0  0  0  0  0  0  0  0  0  0  0
    0.0341   -0.3006    0.0000 C   0  0  0  0  0  0  0  0  0  0  0  0
    0.1349   -1.7972    0.0000 C   0  0  0  0  0  0  0  0  0  0  0  0
    1.5895   -2.1637    0.0000 N   0  0  0  0  0  0  0  0  0  0  0  0
    2.3875   -0.8937    0.0000 C   0  0  0  0  0  0  0  0  0  0  0  0
    3.8654   -0.6369    0.0000 C   0  0  0  0  0  0  0  0  0  0  0  0
    4.3820    0.7713    0.0000 C   0  0  0  0  0  0  0  0  0  0  0  0
    3.4207    1.9228    0.0000 C   0  0  0  0  0  0  0  0  0  0  0  0
    1.9429    1.6661    0.0000 C   0  0  0  0  0  0  0  0  0  0  0  0
    1.4263    0.2578    0.0000 C   0  0  0  0  0  0  0  0  0  0  0  0
   -3.8322    0.5947    0.0000 C   0  0  0  0  0  0  0  0  0  0  0  0
   -3.7761    2.0937    0.0000 O   0  0  0  0  0  0  0  0  0  0  0  0
   -5.1584   -0.1061    0.0000 O   0  0  0  0  0  0  0  0  0  0  0  0
  2  1  1  6
  2  3  1  0
  3  4  1  0
  4  5  2  0
  5  6  1  0
  6  7  1  0
  7  8  2  0
  8  9  1  0
  9 10  2  0
 10 11  1  0
 11 12  2  0
  2 13  1  0
 13 14  2  0
 13 15  1  0
 12  4  1  0
 12  7  1  0
M  END
