038_peptide
     RDKit          2D

 16 15  0  0  0  0  0  0  0  0999 V2000
    4.7445    1.5111    0.0000 C   0  0  0  0  0  0  0  0  0  0  0  0
    4.5204    0.0279    0.0000 C   0  0  0  0  0  0  0  0  0  0  0  0
    3.1238   -0.5195    0.0000 C   0  0  0  0  0  0  0  0  0  0  0  0
    2.8997   -2.0027    0.0000 C   0  0  0  0  0  0  0  0  0  0  0  0
    1.9515    0.4162    0.0000 C   0  0  0  0  0  0  0  0  0  0  0  0
    2.1756    1.8993    0.0000 N   0  0  0  0  0  0  0  0  0  0  0  0
    0.5549   -0.1313    0.0000 C   0  0  0  0  0  0  0  0  0  0  0  0
    0.3308   -1.6144    0.0000 O   0  0  0  0  0  0  0  0  0  0  0  0
   -0.6174    0.8044    0.0000 N   0  0  0  0  0  0  0  0  0  0  0  0
   -2.0140    0.2570    0.0000 C   0  0  0  0  0  0  0  0  0  0  0  0
   -2.2381   -1.2262    0.0000 C   0  0  0  0  0  0  0  0  0  0  0  0
   -1.0657   -2.1619    0.0000 O   0  0  0  0  0  0  0  0  0  0  0  0
   -3.6346   -1.7736    0.0000 O   0  0  0  0  0  0  0  0  0  0  0  0
   -3.1863    1.1927    0.0000 C   0  0  0  0  0  0  0  0  0  0  0  0
   -4.5829    0.6452    0.0000 C   0  0  0  0  0  0  0  0  0  0  0  0
   -2.9622    2.6758    0.0000 C   0  0  0  0  0  0  0  0  0  0  0  0
  1  2  1  0
  2  3  1  0
  3  4  1  6
  3  5  1  0
  5  6  1  1
  5  7  1  0
  7  8  2  0
  7  9  1  0
 10  9  1  6
 10 11  1  0
 11 12  2  0
 11 13  1  0
 10 14  1  0
 14 15  1  0
 14 16  1  0
M  END
