042_peptide
     RDKit          2D

 17 16  0  0  0  0  0  0  0  0999 V2000
    2.4934   -1.9036    0.0000 N   0  0  0  0  0  0  0  0  0  0  0  0
    2.2423   -0.4248    0.0000 C   0  0  0  0  0  0  0  0  0  0  0  0
    3.3975    0.5321    0.0000 C   0  0  0  0  0  0  0  0  0  0  0  0
    4.8038    0.0102    0.0000 C   0  0  0  0  0  0  0  0  0  0  0  0
    5.0548   -1.4687    0.0000 O   0  0  0  0  0  0  0  0  0  0  0  0
    5.9589    0.9670    0.0000 O   0  0  0  0  0  0  0  0  0  0  0  0
    0.8361    0.0972    0.0000 C   0  0  0  0  0  0  0  0  0  0  0  0
    0.5850    1.5760    0.0000 O   0  0  0  0  0  0  0  0  0  0  0  0
   -0.3191   -0.8597    0.0000 N   0  0  0  0  0  0  0  0  0  0  0  0
   -1.7253   -0.3377    0.0000 C   0  0  0  0  0  0  0  0  0  0  0  0
   -2.8805   -1.2946    0.0000 C   0  0  0  0  0  0  0  0  0  0  0  0
   -4.2868   -0.7726    0.0000 C   0  0  0  0  0  0  0  0  0  0  0  0
   -4.5378    0.7062    0.0000 O   0  0  0  0  0  0  0  0  0  0  0  0
   -5.4419   -1.7295    0.0000 O   0  0  0  0  0  0  0  0  0  0  0  0
   -1.9764    1.1411    0.0000 C   0  0  0  0  0  0  0  0  0  0  0  0
   -0.8213    2.0980    0.0000 O   0  0  0  0  0  0  0  0  0  0  0  0
   -3.3827    1.6631    0.0000 O   0  0  0  0  0  0  0  0  0  0  0  0
  2  1  1  6
  2  3  1  0
  3  4  1  0
  4  5  2  0
  4  6  1  0
  2  7  1  0
  7  8  2  0
  7  9  1  0
  9 10  1  0
 10 11  1  1
 11 12  1  0
 12 13  2  0
 12 14  1  0
 10 15  1  0
 15 16  2  0
 15 17  1  0
M  END
