044_peptide
     RDKit          2D

 20 20  0  0  0  0  0  0  0  0999 V2000
   -1.3095    1.9148    0.0000 N   0  0  0  0  0  0  0  0  0  0  0  0
   -1.6913    0.4642    0.0000 C   0  0  0  0  0  0  0  0  0  0  0  0
   -3.1384    0.0695    0.0000 C   0  0  0  0  0  0  0  0  0  0  0  0
   -4.2038    1.1254    0.0000 C   0  0  0  0  0  0  0  0  0  0  0  0
   -5.6509    0.7307    0.0000 C   0  0  0  0  0  0  0  0  0  0  0  0
   -6.0327   -0.7199    0.0000 O   0  0  0  0  0  0  0  0  0  0  0  0
   -6.7163    1.7866    0.0000 O   0  0  0  0  0  0  0  0  0  0  0  0
   -0.6259   -0.5917    0.0000 C   0  0  0  0  0  0  0  0  0  0  0  0
   -1.0076   -2.0423    0.0000 O   0  0  0  0  0  0  0  0  0  0  0  0
    0.8213   -0.1970    0.0000 N   0  0  0  0  0  0  0  0  0  0  0  0
    1.8867   -1.2529    0.0000 C   0  0  0  0  0  0  0  0  0  0  0  0
    3.3338   -0.8582    0.0000 C   0  0  0  0  0  0  0  0  0  0  0  0
    3.7156    0.5924    0.0000 C   0  0  0  0  0  0  0  0  0  0  0  0
    5.1135    1.1362    0.0000 C   0  0  0  0  0  0  0  0  0  0  0  0
    5.0283    2.6338    0.0000 N   0  0  0  0  0  0  0  0  0  0  0  0
    3.5777    3.0156    0.0000 C   0  0  0  0  0  0  0  0  0  0  0  0
    2.7664    1.7539    0.0000 N   0  0  0  0  0  0  0  0  0  0  0  0
    1.5049   -2.7035    0.0000 C   0  0  0  0  0  0  0  0  0  0  0  0
    2.5703   -3.7594    0.0000 O   0  0  0  0  0  0  0  0  0  0  0  0
    0.0578   -3.0982    0.0000 O   0  0  0  0  0  0  0  0  0  0  0  0
  2  1  1  6
  2  3  1  0
  3  4  1  0
  4  5  1  0
  5  6  2  0
  5  7  1  0
  2  8  1  0
  8  9  2  0
  8 10  1  0
 10 11  1  0
 11 12  1  1
 12 13  1  0
 13 14  2  0
 14 15  1  0
 15 16  1  0
 16 17  2  0
 11 18  1  0
 18 19  2  0
 18 20  1  0
 17 13  1  0
M  END
