045_peptide
     RDKit          2D

 17 16  0  0  0  0  0  0  0  0999 V2000
    5.2490    1.7737    0.0000 C   0  0  0  0  0  0  0  0  0  0  0  0
    5.0977    0.2814    0.0000 C   0  0  0  0  0  0  0  0  0  0  0  0
    3.7296   -0.3338    0.0000 C   0  0  0  0  0  0  0  0  0  0  0  0
    3.5783   -1.8261    0.0000 C   0  0  0  0  0  0  0  0  0  0  0  0
    2.5129    0.5434    0.0000 C   0  0  0  0  0  0  0  0  0  0  0  0
    2.6642    2.0358    0.0000 N   0  0  0  0  0  0  0  0  0  0  0  0
    1.1448   -0.0717    0.0000 C   0  0  0  0  0  0  0  0  0  0  0  0
    0.9935   -1.5641    0.0000 O   0  0  0  0  0  0  0  0  0  0  0  0
   -0.0720    0.8055    0.0000 N   0  0  0  0  0  0  0  0  0  0  0  0
   -1.4400    0.1903    0.0000 C   0  0  0  0  0  0  0  0  0  0  0  0
   -2.6568    1.0675    0.0000 C   0  0  0  0  0  0  0  0  0  0  0  0
   -4.0248    0.4524    0.0000 C   0  0  0  0  0  0  0  0  0  0  0  0
   -5.2416    1.3296    0.0000 S   0  0  0  0  0  0  0  0  0  0  0  0
   -6.6097    0.7144    0.0000 C   0  0  0  0  0  0  0  0  0  0  0  0
   -1.5913   -1.3020    0.0000 C   0  0  0  0  0  0  0  0  0  0  0  0
   -0.3745   -2.1792    0.0000 O   0  0  0  0  0  0  0  0  0  0  0  0
   -2.9594   -1.9172    0.0000 O   0  0  0  0  0  0  0  0  0  0  0  0
  1  2  1  0
  2  3  1  0
  3  4  1  6
  3  5  1  0
  5  6  1  1
  5  7  1  0
  7  8  2  0
  7  9  1  0
  9 10  1  0
 10 11  1  6
 11 12  1  0
 12 13  1  0
 13 14  1  0
 10 15  1  0
 15 16  2  0
 15 17  1  0
M  END
