048_peptide
     RDKit          2D

 17 16  0  0  0  0  0  0  0  0999 V2000
    4.9208    3.3955    0.0000 C   0  0  0  0  0  0  0  0  0  0  0  0
    4.7524    1.9049    0.0000 S   0  0  0  0  0  0  0  0  0  0  0  0
    3.3773    1.3055    0.0000 C   0  0  0  0  0  0  0  0  0  0  0  0
    3.2089   -0.1850    0.0000 C   0  0  0  0  0  0  0  0  0  0  0  0
    1.8339   -0.7844    0.0000 C   0  0  0  0  0  0  0  0  0  0  0  0
    0.6273    0.1067    0.0000 N   0  0  0  0  0  0  0  0  0  0  0  0
   -0.7478   -0.4927    0.0000 C   0  0  0  0  0  0  0  0  0  0  0  0
   -0.9162   -1.9832    0.0000 O   0  0  0  0  0  0  0  0  0  0  0  0
   -1.9544    0.3984    0.0000 C   0  0  0  0  0  0  0  0  0  0  0  0
   -1.7860    1.8889    0.0000 N   0  0  0  0  0  0  0  0  0  0  0  0
   -3.3294   -0.2010    0.0000 C   0  0  0  0  0  0  0  0  0  0  0  0
   -4.5360    0.6901    0.0000 C   0  0  0  0  0  0  0  0  0  0  0  0
   -4.3676    2.1806    0.0000 O   0  0  0  0  0  0  0  0  0  0  0  0
   -5.9111    0.0907    0.0000 O   0  0  0  0  0  0  0  0  0  0  0  0
    1.6655   -2.2749    0.0000 C   0  0  0  0  0  0  0  0  0  0  0  0
    2.8721   -3.1660    0.0000 O   0  0  0  0  0  0  0  0  0  0  0  0
    0.2904   -2.8743    0.0000 O   0  0  0  0  0  0  0  0  0  0  0  0
  1  2  1  0
  2  3  1  0
  3  4  1  0
  5  4  1  1
  5  6  1  0
  6  7  1  0
  7  8  2  0
  7  9  1  0
  9 10  1  6
  9 11  1  0
 11 12  1  0
 12 13  2  0
 12 14  1  0
  5 15  1  0
 15 16  2  0
 15 17  1  0
M  END
