050_peptide
     RDKit          2D

 20 20  0  0  0  0  0  0  0  0999 V2000
   -5.9250    0.1298    0.0000 C   0  0  0  0  0  0  0  0  0  0  0  0
   -4.4264    0.0641    0.0000 C   0  0  0  0  0  0  0  0  0  0  0  0
   -3.6202    1.3290    0.0000 C   0  0  0  0  0  0  0  0  0  0  0  0
   -4.3126    2.6597    0.0000 C   0  0  0  0  0  0  0  0  0  0  0  0
   -2.1217    1.2633    0.0000 C   0  0  0  0  0  0  0  0  0  0  0  0
   -1.3155    2.5282    0.0000 N   0  0  0  0  0  0  0  0  0  0  0  0
   -1.4293   -0.0673    0.0000 C   0  0  0  0  0  0  0  0  0  0  0  0
   -2.2355   -1.3323    0.0000 O   0  0  0  0  0  0  0  0  0  0  0  0
    0.0692   -0.1331    0.0000 N   0  0  0  0  0  0  0  0  0  0  0  0
    0.7616   -1.4637    0.0000 C   0  0  0  0  0  0  0  0  0  0  0  0
    2.2602   -1.5294    0.0000 C   0  0  0  0  0  0  0  0  0  0  0  0
    3.0664   -0.2645    0.0000 C   0  0  0  0  0  0  0  0  0  0  0  0
    2.3740    1.0661    0.0000 C   0  0  0  0  0  0  0  0  0  0  0  0
    3.1802    2.3311    0.0000 C   0  0  0  0  0  0  0  0  0  0  0  0
    4.6787    2.2654    0.0000 C   0  0  0  0  0  0  0  0  0  0  0  0
    5.3711    0.9347    0.0000 C   0  0  0  0  0  0  0  0  0  0  0  0
    4.5649   -0.3302    0.0000 C   0  0  0  0  0  0  0  0  0  0  0  0
   -0.0446   -2.7286    0.0000 C   0  0  0  0  0  0  0  0  0  0  0  0
    0.6478   -4.0593    0.0000 O   0  0  0  0  0  0  0  0  0  0  0  0
   -1.5432   -2.6629    0.0000 O   0  0  0  0  0  0  0  0  0  0  0  0
  1  2  1  0
  2  3  1  0
  3  4  1  6
  3  5  1  0
  5  6  1  6
  5  7  1  0
  7  8  2  0
  7  9  1  0
  9 10  1  0
 10 11  1  1
 11 12  1  0
 12 13  2  0
 13 14  1  0
 14 15  2  0
 15 16  1  0
 16 17  2  0
 10 18  1  0
 18 19  2  0
 18 20  1  0
 17 12  1  0
M  END
