052_peptide
     RDKit          2D

 28 27  0  0  0  0  0  0  0  0999 V2000
   -6.5936    0.9937    0.0000 C   0  0  0  0  0  0  0  0  0  0  0  0
   -5.2594    1.6792    0.0000 C   0  0  0  0  0  0  0  0  0  0  0  0
   -5.1860    3.1774    0.0000 O   0  0  0  0  0  0  0  0  0  0  0  0
   -3.9987    0.8665    0.0000 C   0  0  0  0  0  0  0  0  0  0  0  0
   -4.0721   -0.6317    0.0000 N   0  0  0  0  0  0  0  0  0  0  0  0
   -2.8114   -1.4444    0.0000 C   0  0  0  0  0  0  0  0  0  0  0  0
   -1.4772   -0.7589    0.0000 O   0  0  0  0  0  0  0  0  0  0  0  0
   -2.8848   -2.9426    0.0000 C   0  0  0  0  0  0  0  0  0  0  0  0
   -4.2190   -3.6281    0.0000 N   0  0  0  0  0  0  0  0  0  0  0  0
   -1.6240   -3.7553    0.0000 C   0  0  0  0  0  0  0  0  0  0  0  0
   -1.6975   -5.2535    0.0000 S   0  0  0  0  0  0  0  0  0  0  0  0
   -2.6645    1.5520    0.0000 C   0  0  0  0  0  0  0  0  0  0  0  0
   -2.5910    3.0502    0.0000 O   0  0  0  0  0  0  0  0  0  0  0  0
   -1.4037    0.7393    0.0000 N   0  0  0  0  0  0  0  0  0  0  0  0
   -0.0695    1.4248    0.0000 C   0  0  0  0  0  0  0  0  0  0  0  0
    0.0039    2.9230    0.0000 C   0  0  0  0  0  0  0  0  0  0  0  0
    1.3381    3.6084    0.0000 S   0  0  0  0  0  0  0  0  0  0  0  0
    1.1913    0.6120    0.0000 C   0  0  0  0  0  0  0  0  0  0  0  0
    1.1178   -0.8862    0.0000 O   0  0  0  0  0  0  0  0  0  0  0  0
    2.5255    1.2975    0.0000 N   0  0  0  0  0  0  0  0  0  0  0  0
    3.7862    0.4848    0.0000 C   0  0  0  0  0  0  0  0  0  0  0  0
    5.1204    1.1703    0.0000 C   0  0  0  0  0  0  0  0  0  0  0  0
    6.3812    0.3576    0.0000 C   0  0  0  0  0  0  0  0  0  0  0  0
    6.3077   -1.1406    0.0000 O   0  0  0  0  0  0  0  0  0  0  0  0
    7.7154    1.0431    0.0000 O   0  0  0  0  0  0  0  0  0  0  0  0
    3.7128   -1.0134    0.0000 C   0  0  0  0  0  0  0  0  0  0  0  0
    2.3786   -1.6989    0.0000 O   0  0  0  0  0  0  0  0  0  0  0  0
    4.9735   -1.8261    0.0000 O   0  0  0  0  0  0  0  0  0  0  0  0
  2  1  1  1
  2  3  1  0
  2  4  1  0
  4  5  1  1
  5  6  1  0
  6  7  2  0
  6  8  1  0
  8  9  1  6
  8 10  1  0
 10 11  1  0
  4 12  1  0
 12 13  2  0
 12 14  1  0
 14 15  1  0
 15 16  1  1
 16 17  1  0
 15 18  1  0
 18 19  2  0
 18 20  1  0
 20 21  1  0
 21 22  1  1
 22 23  1  0
 23 24  2  0
 23 25  1  0
 21 26  1  0
 26 27  2  0
 26 28  1  0
M  END
