053_peptide
     RDKit          2D

 25 24  0  0  0  0  0  0  0  0999 V2000
    6.8658   -0.2868    0.0000 C   0  0  0  0  0  0  0  0  0  0  0  0
    6.0337   -1.5348    0.0000 C   0  0  0  0  0  0  0  0  0  0  0  0
    4.5368   -1.4382    0.0000 C   0  0  0  0  0  0  0  0  0  0  0  0
    3.7047   -2.6863    0.0000 C   0  0  0  0  0  0  0  0  0  0  0  0
    3.8720   -0.0936    0.0000 C   0  0  0  0  0  0  0  0  0  0  0  0
    4.7041    1.1544    0.0000 N   0  0  0  0  0  0  0  0  0  0  0  0
    2.3751    0.0030    0.0000 C   0  0  0  0  0  0  0  0  0  0  0  0
    1.5430   -1.2451    0.0000 O   0  0  0  0  0  0  0  0  0  0  0  0
    1.7103    1.3476    0.0000 N   0  0  0  0  0  0  0  0  0  0  0  0
    0.2134    1.4442    0.0000 C   0  0  0  0  0  0  0  0  0  0  0  0
   -0.6187    0.1961    0.0000 C   0  0  0  0  0  0  0  0  0  0  0  0
    0.0461   -1.1485    0.0000 O   0  0  0  0  0  0  0  0  0  0  0  0
   -2.1155    0.2927    0.0000 N   0  0  0  0  0  0  0  0  0  0  0  0
   -2.9476   -0.9554    0.0000 C   0  0  0  0  0  0  0  0  0  0  0  0
   -2.2828   -2.3000    0.0000 C   0  0  0  0  0  0  0  0  0  0  0  0
   -0.7859   -2.3966    0.0000 O   0  0  0  0  0  0  0  0  0  0  0  0
   -3.1149   -3.5480    0.0000 O   0  0  0  0  0  0  0  0  0  0  0  0
   -4.4445   -0.8588    0.0000 C   0  0  0  0  0  0  0  0  0  0  0  0
   -5.2766   -2.1068    0.0000 C   0  0  0  0  0  0  0  0  0  0  0  0
   -5.1093    0.4859    0.0000 C   0  0  0  0  0  0  0  0  0  0  0  0
   -6.6062    0.5824    0.0000 C   0  0  0  0  0  0  0  0  0  0  0  0
   -0.4514    2.7888    0.0000 C   0  0  0  0  0  0  0  0  0  0  0  0
   -1.9483    2.8854    0.0000 C   0  0  0  0  0  0  0  0  0  0  0  0
    0.3807    4.0369    0.0000 C   0  0  0  0  0  0  0  0  0  0  0  0
   -0.2841    5.3815    0.0000 C   0  0  0  0  0  0  0  0  0  0  0  0
  1  2  1  0
  2  3  1  0
  3  4  1  6
  3  5  1  0
  5  6  1  1
  5  7  1  0
  7  8  2  0
  7  9  1  0
 10  9  1  6
 10 11  1  0
 11 12  2  0
 11 13  1  0
 14 13  1  6
 14 15  1  0
 15 16  2  0
 15 17  1  0
 14 18  1  0
 18 19  1  1
 18 20  1  0
 20 21  1  0
 10 22  1  0
 22 23  1  1
 22 24  1  0
 24 25  1  0
M  END
