054_peptide
     RDKit          2D

 39 40  0  0  0  0  0  0  0  0999 V2000
   -4.3827    4.4528    0.0000 C   0  0  0  0  0  0  0  0  0  0  0  0
   -4.1968    2.9643    0.0000 C   0  0  0  0  0  0  0  0  0  0  0  0
   -5.3929    2.0592    0.0000 C   0  0  0  0  0  0  0  0  0  0  0  0
   -6.7749    2.6424    0.0000 C   0  0  0  0  0  0  0  0  0  0  0  0
   -5.2071    0.5707    0.0000 C   0  0  0  0  0  0  0  0  0  0  0  0
   -3.8251   -0.0125    0.0000 N   0  0  0  0  0  0  0  0  0  0  0  0
   -3.6392   -1.5010    0.0000 C   0  0  0  0  0  0  0  0  0  0  0  0
   -4.8353   -2.4062    0.0000 O   0  0  0  0  0  0  0  0  0  0  0  0
   -2.2573   -2.0842    0.0000 C   0  0  0  0  0  0  0  0  0  0  0  0
   -2.0714   -3.5727    0.0000 C   0  0  0  0  0  0  0  0  0  0  0  0
   -0.6895   -4.1559    0.0000 C   0  0  0  0  0  0  0  0  0  0  0  0
   -0.5036   -5.6444    0.0000 C   0  0  0  0  0  0  0  0  0  0  0  0
    0.8784   -6.2276    0.0000 C   0  0  0  0  0  0  0  0  0  0  0  0
    2.0745   -5.3224    0.0000 C   0  0  0  0  0  0  0  0  0  0  0  0
    1.8886   -3.8340    0.0000 C   0  0  0  0  0  0  0  0  0  0  0  0
    0.5066   -3.2507    0.0000 C   0  0  0  0  0  0  0  0  0  0  0  0
   -1.0612   -1.1790    0.0000 N   0  0  0  0  0  0  0  0  0  0  0  0
   -1.2471    0.3094    0.0000 C   0  0  0  0  0  0  0  0  0  0  0  0
   -2.6290    0.8927    0.0000 O   0  0  0  0  0  0  0  0  0  0  0  0
   -0.0510    1.2146    0.0000 C   0  0  0  0  0  0  0  0  0  0  0  0
    1.3310    0.6313    0.0000 N   0  0  0  0  0  0  0  0  0  0  0  0
    2.5271    1.5365    0.0000 C   0  0  0  0  0  0  0  0  0  0  0  0
    2.3412    3.0250    0.0000 O   0  0  0  0  0  0  0  0  0  0  0  0
    3.9090    0.9533    0.0000 C   0  0  0  0  0  0  0  0  0  0  0  0
    4.0949   -0.5352    0.0000 N   0  0  0  0  0  0  0  0  0  0  0  0
    5.1051    1.8584    0.0000 C   0  0  0  0  0  0  0  0  0  0  0  0
    6.4871    1.2752    0.0000 C   0  0  0  0  0  0  0  0  0  0  0  0
    6.6730   -0.2133    0.0000 C   0  0  0  0  0  0  0  0  0  0  0  0
    8.0549   -0.7965    0.0000 C   0  0  0  0  0  0  0  0  0  0  0  0
    9.2510    0.1087    0.0000 C   0  0  0  0  0  0  0  0  0  0  0  0
    9.0652    1.5971    0.0000 C   0  0  0  0  0  0  0  0  0  0  0  0
    7.6832    2.1804    0.0000 C   0  0  0  0  0  0  0  0  0  0  0  0
   -0.2368    2.7030    0.0000 C   0  0  0  0  0  0  0  0  0  0  0  0
    0.9593    3.6082    0.0000 C   0  0  0  0  0  0  0  0  0  0  0  0
   -1.6188    3.2863    0.0000 C   0  0  0  0  0  0  0  0  0  0  0  0
   -1.8047    4.7747    0.0000 C   0  0  0  0  0  0  0  0  0  0  0  0
   -6.4032   -0.3345    0.0000 C   0  0  0  0  0  0  0  0  0  0  0  0
   -6.2173   -1.8229    0.0000 O   0  0  0  0  0  0  0  0  0  0  0  0
   -7.7851    0.2488    0.0000 O   0  0  0  0  0  0  0  0  0  0  0  0
  1  2  1  0
  2  3  1  0
  3  4  1  1
  3  5  1  0
  5  6  1  6
  6  7  1  0
  7  8  2  0
  7  9  1  0
  9 10  1  1
 10 11  1  0
 11 12  2  0
 12 13  1  0
 13 14  2  0
 14 15  1  0
 15 16  2  0
  9 17  1  0
 17 18  1  0
 18 19  2  0
 18 20  1  0
 20 21  1  6
 21 22  1  0
 22 23  2  0
 22 24  1  0
 24 25  1  6
 24 26  1  0
 26 27  1  0
 27 28  2  0
 28 29  1  0
 29 30  2  0
 30 31  1  0
 31 32  2  0
 20 33  1  0
 33 34  1  6
 33 35  1  0
 35 36  1  0
  5 37  1  0
 37 38  2  0
 37 39  1  0
 16 11  1  0
 32 27  1  0
M  END
