055_peptide
     RDKit          2D

 21 21  0  0  0  0  0  0  0  0999 V2000
   -8.5947    1.5365    0.0000 N   0  0  0  0  0  0  0  0  0  0  0  0
   -7.4056    0.6222    0.0000 C   0  0  0  0  0  0  0  0  0  0  0  0
   -6.0192    1.1948    0.0000 C   0  0  0  0  0  0  0  0  0  0  0  0
   -4.8301    0.2805    0.0000 C   0  0  0  0  0  0  0  0  0  0  0  0
   -3.4437    0.8531    0.0000 C   0  0  0  0  0  0  0  0  0  0  0  0
   -2.2545   -0.0612    0.0000 C   0  0  0  0  0  0  0  0  0  0  0  0
   -0.8682    0.5115    0.0000 N   0  0  0  0  0  0  0  0  0  0  0  0
    0.3210   -0.4029    0.0000 C   0  0  0  0  0  0  0  0  0  0  0  0
    0.1237   -1.8898    0.0000 O   0  0  0  0  0  0  0  0  0  0  0  0
    1.7074    0.1698    0.0000 C   0  0  0  0  0  0  0  0  0  0  0  0
    1.9046    1.6568    0.0000 N   0  0  0  0  0  0  0  0  0  0  0  0
    2.8965   -0.7445    0.0000 C   0  0  0  0  0  0  0  0  0  0  0  0
    4.2829   -0.1719    0.0000 C   0  0  0  0  0  0  0  0  0  0  0  0
    4.4801    1.3151    0.0000 C   0  0  0  0  0  0  0  0  0  0  0  0
    5.8665    1.8878    0.0000 C   0  0  0  0  0  0  0  0  0  0  0  0
    7.0556    0.9734    0.0000 C   0  0  0  0  0  0  0  0  0  0  0  0
    6.8584   -0.5135    0.0000 C   0  0  0  0  0  0  0  0  0  0  0  0
    5.4720   -1.0862    0.0000 C   0  0  0  0  0  0  0  0  0  0  0  0
   -2.4518   -1.5482    0.0000 C   0  0  0  0  0  0  0  0  0  0  0  0
   -1.2627   -2.4625    0.0000 O   0  0  0  0  0  0  0  0  0  0  0  0
   -3.8382   -2.1208    0.0000 O   0  0  0  0  0  0  0  0  0  0  0  0
  1  2  1  0
  2  3  1  0
  3  4  1  0
  4  5  1  0
  6  5  1  6
  6  7  1  0
  7  8  1  0
  8  9  2  0
  8 10  1  0
 10 11  1  1
 10 12  1  0
 12 13  1  0
 13 14  2  0
 14 15  1  0
 15 16  2  0
 16 17  1  0
 17 18  2  0
  6 19  1  0
 19 20  2  0
 19 21  1  0
 18 13  1  0
M  END
