057_peptide
     RDKit          2D

 24 25  0  0  0  0  0  0  0  0999 V2000
    2.1497    1.6226    0.0000 N   0  0  0  0  0  0  0  0  0  0  0  0
    1.8140    0.1606    0.0000 C   0  0  0  0  0  0  0  0  0  0  0  0
    2.9123   -0.8611    0.0000 C   0  0  0  0  0  0  0  0  0  0  0  0
    4.3462   -0.4208    0.0000 C   0  0  0  0  0  0  0  0  0  0  0  0
    5.4444   -1.4425    0.0000 C   0  0  0  0  0  0  0  0  0  0  0  0
    6.8784   -1.0022    0.0000 C   0  0  0  0  0  0  0  0  0  0  0  0
    7.2141    0.4598    0.0000 C   0  0  0  0  0  0  0  0  0  0  0  0
    8.6480    0.9000    0.0000 O   0  0  0  0  0  0  0  0  0  0  0  0
    6.1158    1.4815    0.0000 C   0  0  0  0  0  0  0  0  0  0  0  0
    4.6819    1.0412    0.0000 C   0  0  0  0  0  0  0  0  0  0  0  0
    0.3801   -0.2796    0.0000 C   0  0  0  0  0  0  0  0  0  0  0  0
    0.0444   -1.7416    0.0000 O   0  0  0  0  0  0  0  0  0  0  0  0
   -0.7182    0.7420    0.0000 N   0  0  0  0  0  0  0  0  0  0  0  0
   -2.1521    0.3018    0.0000 C   0  0  0  0  0  0  0  0  0  0  0  0
   -3.2504    1.3234    0.0000 C   0  0  0  0  0  0  0  0  0  0  0  0
   -4.6843    0.8832    0.0000 C   0  0  0  0  0  0  0  0  0  0  0  0
   -5.7826    1.9049    0.0000 C   0  0  0  0  0  0  0  0  0  0  0  0
   -7.2165    1.4646    0.0000 C   0  0  0  0  0  0  0  0  0  0  0  0
   -7.5522    0.0026    0.0000 C   0  0  0  0  0  0  0  0  0  0  0  0
   -6.4539   -1.0191    0.0000 C   0  0  0  0  0  0  0  0  0  0  0  0
   -5.0200   -0.5788    0.0000 C   0  0  0  0  0  0  0  0  0  0  0  0
   -2.4878   -1.1602    0.0000 C   0  0  0  0  0  0  0  0  0  0  0  0
   -1.3895   -2.1819    0.0000 O   0  0  0  0  0  0  0  0  0  0  0  0
   -3.9217   -1.6005    0.0000 O   0  0  0  0  0  0  0  0  0  0  0  0
  2  1  1  1
  2  3  1  0
  3  4  1  0
  4  5  1  0
  5  6  2  0
  6  7  1  0
  7  8  1  0
  7  9  2  0
  9 10  1  0
  2 11  1  0
 11 12  2  0
 11 13  1  0
 13 14  1  0
 14 15  1  6
 15 16  1  0
 16 17  2  0
 17 18  1  0
 18 19  2  0
 19 20  1  0
 20 21  2  0
 14 22  1  0
 22 23  2  0
 22 24  1  0
 10  4  2  0
 21 16  1  0
M  END
