058_peptide
     RDKit          2D

 32 31  0  0  0  0  0  0  0  0999 V2000
    7.4684   -1.3813    0.0000 C   0  0  0  0  0  0  0  0  0  0  0  0
    6.2933   -2.3136    0.0000 C   0  0  0  0  0  0  0  0  0  0  0  0
    4.8984   -1.7620    0.0000 C   0  0  0  0  0  0  0  0  0  0  0  0
    3.7233   -2.6943    0.0000 C   0  0  0  0  0  0  0  0  0  0  0  0
    4.6785   -0.2782    0.0000 C   0  0  0  0  0  0  0  0  0  0  0  0
    5.8536    0.6541    0.0000 N   0  0  0  0  0  0  0  0  0  0  0  0
    3.2836    0.2733    0.0000 C   0  0  0  0  0  0  0  0  0  0  0  0
    2.1085   -0.6590    0.0000 O   0  0  0  0  0  0  0  0  0  0  0  0
    3.0638    1.7571    0.0000 N   0  0  0  0  0  0  0  0  0  0  0  0
    1.6688    2.3086    0.0000 C   0  0  0  0  0  0  0  0  0  0  0  0
    1.4490    3.7924    0.0000 C   0  0  0  0  0  0  0  0  0  0  0  0
    0.0540    4.3439    0.0000 C   0  0  0  0  0  0  0  0  0  0  0  0
   -0.1658    5.8277    0.0000 S   0  0  0  0  0  0  0  0  0  0  0  0
   -1.5607    6.3792    0.0000 C   0  0  0  0  0  0  0  0  0  0  0  0
    0.4937    1.3763    0.0000 C   0  0  0  0  0  0  0  0  0  0  0  0
    0.7136   -0.1075    0.0000 O   0  0  0  0  0  0  0  0  0  0  0  0
   -0.9012    1.9278    0.0000 N   0  0  0  0  0  0  0  0  0  0  0  0
   -2.0763    0.9955    0.0000 C   0  0  0  0  0  0  0  0  0  0  0  0
   -1.8564   -0.4883    0.0000 C   0  0  0  0  0  0  0  0  0  0  0  0
   -0.4615   -1.0398    0.0000 O   0  0  0  0  0  0  0  0  0  0  0  0
   -3.0315   -1.4206    0.0000 N   0  0  0  0  0  0  0  0  0  0  0  0
   -2.8117   -2.9044    0.0000 C   0  0  0  0  0  0  0  0  0  0  0  0
   -1.4168   -3.4559    0.0000 C   0  0  0  0  0  0  0  0  0  0  0  0
   -0.2417   -2.5236    0.0000 O   0  0  0  0  0  0  0  0  0  0  0  0
   -1.1969   -4.9397    0.0000 O   0  0  0  0  0  0  0  0  0  0  0  0
   -3.9868   -3.8367    0.0000 C   0  0  0  0  0  0  0  0  0  0  0  0
   -3.7669   -5.3205    0.0000 C   0  0  0  0  0  0  0  0  0  0  0  0
   -5.3817   -3.2852    0.0000 O   0  0  0  0  0  0  0  0  0  0  0  0
   -3.4712    1.5470    0.0000 C   0  0  0  0  0  0  0  0  0  0  0  0
   -4.6463    0.6147    0.0000 C   0  0  0  0  0  0  0  0  0  0  0  0
   -3.6911    3.0308    0.0000 C   0  0  0  0  0  0  0  0  0  0  0  0
   -5.0860    3.5823    0.0000 C   0  0  0  0  0  0  0  0  0  0  0  0
  1  2  1  0
  2  3  1  0
  3  4  1  6
  3  5  1  0
  5  6  1  1
  5  7  1  0
  7  8  2  0
  7  9  1  0
  9 10  1  0
 10 11  1  6
 11 12  1  0
 12 13  1  0
 13 14  1  0
 10 15  1  0
 15 16  2  0
 15 17  1  0
 18 17  1  6
 18 19  1  0
 19 20  2  0
 19 21  1  0
 22 21  1  6
 22 23  1  0
 23 24  2  0
 23 25  1  0
 22 26  1  0
 26 27  1  1
 26 28  1  0
 18 29  1  0
 29 30  1  1
 29 31  1  0
 31 32  1  0
M  END
