
     RDKit          2D

 35 34  0  0  0  0  0  0  0  0999 V2000
    4.2452    3.5490    0.0000 C   0  0  0  0  0  0  0  0  0  0  0  0
    2.9462    4.2990    0.0000 C   0  0  0  0  0  0  0  0  0  0  0  0
    1.6471    5.0490    0.0000 C   0  0  0  0  0  0  0  0  0  0  0  0
    0.3481    4.2990    0.0000 C   0  0  0  0  0  0  0  0  0  0  0  0
   -0.9510    3.5490    0.0000 C   0  0  0  0  0  0  0  0  0  0  0  0
   -2.2500    4.2990    0.0000 C   0  0  0  0  0  0  0  0  0  0  0  0
    1.0981    3.0000    0.0000 C   0  0  0  0  0  0  0  0  0  0  0  0
    2.5981    3.0000    0.0000 C   0  0  0  0  0  0  0  0  0  0  0  0
    0.3481    1.7010    0.0000 C   0  0  0  0  0  0  0  0  0  0  0  0
   -1.1519    1.7010    0.0000 C   0  0  0  0  0  0  0  0  0  0  0  0
    1.0981    0.4019    0.0000 C   0  0  0  0  0  0  0  0  0  0  0  0
    1.8481   -0.8971    0.0000 C   0  0  0  0  0  0  0  0  0  0  0  0
    3.3481   -0.8971    0.0000 C   0  0  0  0  0  0  0  0  0  0  0  0
    4.0981   -2.1962    0.0000 C   0  0  0  0  0  0  0  0  0  0  0  0
    5.5981   -2.1962    0.0000 C   0  0  0  0  0  0  0  0  0  0  0  0
    6.3481   -3.4952    0.0000 C   0  0  0  0  0  0  0  0  0  0  0  0
    7.8481   -3.4952    0.0000 C   0  0  0  0  0  0  0  0  0  0  0  0
    8.5981   -4.7942    0.0000 C   0  0  0  0  0  0  0  0  0  0  0  0
    7.8481   -6.0933    0.0000 C   0  0  0  0  0  0  0  0  0  0  0  0
    7.0981   -7.3923    0.0000 C   0  0  0  0  0  0  0  0  0  0  0  0
   10.0981   -4.7942    0.0000 C   0  0  0  0  0  0  0  0  0  0  0  0
   10.8481   -6.0933    0.0000 C   0  0  0  0  0  0  0  0  0  0  0  0
   12.3481   -6.0933    0.0000 C   0  0  0  0  0  0  0  0  0  0  0  0
   10.0981   -7.3923    0.0000 C   0  0  0  0  0  0  0  0  0  0  0  0
   10.8481   -8.6913    0.0000 C   0  0  0  0  0  0  0  0  0  0  0  0
   12.3481   -8.6913    0.0000 C   0  0  0  0  0  0  0  0  0  0  0  0
   13.8481   -8.6913    0.0000 C   0  0  0  0  0  0  0  0  0  0  0  0
   10.0981   -9.9904    0.0000 C   0  0  0  0  0  0  0  0  0  0  0  0
   10.8481  -11.2894    0.0000 C   0  0  0  0  0  0  0  0  0  0  0  0
   -0.4019    5.5981    0.0000 C   0  0  0  0  0  0  0  0  0  0  0  0
   -1.9019    5.5981    0.0000 C   0  0  0  0  0  0  0  0  0  0  0  0
    0.3481    6.8971    0.0000 C   0  0  0  0  0  0  0  0  0  0  0  0
    1.0981    8.1962    0.0000 C   0  0  0  0  0  0  0  0  0  0  0  0
    2.5981    8.1962    0.0000 C   0  0  0  0  0  0  0  0  0  0  0  0
    0.3481    9.4952    0.0000 C   0  0  0  0  0  0  0  0  0  0  0  0
  1  2  2  0
  2  3  2  0
  3  4  1  0
  4  5  1  0
  5  6  1  0
  4  7  1  0
  7  8  2  0
  7  9  1  0
  9 10  1  0
  9 11  2  0
 11 12  2  0
 12 13  1  0
 13 14  2  3
 14 15  1  0
 15 16  2  3
 16 17  1  0
 17 18  1  0
 18 19  2  0
 19 20  2  0
 18 21  1  0
 21 22  1  0
 22 23  1  0
 22 24  2  3
 24 25  1  0
 25 26  2  0
 26 27  2  0
 25 28  1  0
 28 29  1  0
  4 30  1  0
 30 31  1  0
 30 32  2  0
 32 33  2  0
 33 34  1  0
 33 35  1  0
M  END
