
     RDKit          2D

 38 37  0  0  0  0  0  0  0  0999 V2000
    0.0000    0.0000    0.0000 C   0  0  0  0  0  0  0  0  0  0  0  0
    1.2990    0.7500    0.0000 C   0  0  0  0  0  0  0  0  0  0  0  0
    2.5981    1.5000    0.0000 C   0  0  0  0  0  0  0  0  0  0  0  0
    3.8971    2.2500    0.0000 C   0  0  0  0  0  0  0  0  0  0  0  0
    3.8971    3.7500    0.0000 C   0  0  0  0  0  0  0  0  0  0  0  0
    5.1962    4.5000    0.0000 C   0  0  0  0  0  0  0  0  0  0  0  0
    6.4952    5.2500    0.0000 C   0  0  0  0  0  0  0  0  0  0  0  0
    5.1962    1.5000    0.0000 C   0  0  0  0  0  0  0  0  0  0  0  0
    6.4952    2.2500    0.0000 C   0  0  0  0  0  0  0  0  0  0  0  0
    7.7942    1.5000    0.0000 C   0  0  0  0  0  0  0  0  0  0  0  0
    6.4952    3.7500    0.0000 C   0  0  0  0  0  0  0  0  0  0  0  0
    7.7942    4.5000    0.0000 C   0  0  0  0  0  0  0  0  0  0  0  0
    8.5442    3.2010    0.0000 C   0  0  0  0  0  0  0  0  0  0  0  0
    7.0442    5.7990    0.0000 C   0  0  0  0  0  0  0  0  0  0  0  0
    7.7942    7.0981    0.0000 C   0  0  0  0  0  0  0  0  0  0  0  0
    7.0442    8.3971    0.0000 C   0  0  0  0  0  0  0  0  0  0  0  0
    7.7942    9.6962    0.0000 C   0  0  0  0  0  0  0  0  0  0  0  0
    5.5442    8.3971    0.0000 C   0  0  0  0  0  0  0  0  0  0  0  0
    4.7942    9.6962    0.0000 C   0  0  0  0  0  0  0  0  0  0  0  0
    3.2942    9.6962    0.0000 C   0  0  0  0  0  0  0  0  0  0  0  0
    2.5442   10.9952    0.0000 C   0  0  0  0  0  0  0  0  0  0  0  0
    1.0442   10.9952    0.0000 C   0  0  0  0  0  0  0  0  0  0  0  0
    0.2942   12.2942    0.0000 C   0  0  0  0  0  0  0  0  0  0  0  0
   -1.2058   12.2942    0.0000 C   0  0  0  0  0  0  0  0  0  0  0  0
   -2.7058   12.2942    0.0000 C   0  0  0  0  0  0  0  0  0  0  0  0
   -4.2058   12.2942    0.0000 C   0  0  0  0  0  0  0  0  0  0  0  0
   -5.7058   12.2942    0.0000 C   0  0  0  0  0  0  0  0  0  0  0  0
   -6.4558   10.9952    0.0000 C   0  0  0  0  0  0  0  0  0  0  0  0
    9.0933    5.2500    0.0000 C   0  0  0  0  0  0  0  0  0  0  0  0
   10.3923    4.5000    0.0000 C   0  0  0  0  0  0  0  0  0  0  0  0
   11.6913    5.2500    0.0000 C   0  0  0  0  0  0  0  0  0  0  0  0
   12.9904    4.5000    0.0000 C   0  0  0  0  0  0  0  0  0  0  0  0
   14.2894    5.2500    0.0000 C   0  0  0  0  0  0  0  0  0  0  0  0
   15.5885    4.5000    0.0000 C   0  0  0  0  0  0  0  0  0  0  0  0
   16.8875    5.2500    0.0000 C   0  0  0  0  0  0  0  0  0  0  0  0
   18.1865    4.5000    0.0000 C   0  0  0  0  0  0  0  0  0  0  0  0
   10.3923    3.0000    0.0000 C   0  0  0  0  0  0  0  0  0  0  0  0
   11.6913    2.2500    0.0000 C   0  0  0  0  0  0  0  0  0  0  0  0
  1  2  2  0
  2  3  2  0
  3  4  2  0
  4  5  1  0
  5  6  2  0
  6  7  2  0
  4  8  1  0
  8  9  2  3
  9 10  1  0
  9 11  1  0
 11 12  1  0
 12 13  1  0
 12 14  1  0
 14 15  1  0
 15 16  2  3
 16 17  1  0
 16 18  1  0
 18 19  1  0
 19 20  1  0
 20 21  1  0
 21 22  2  3
 22 23  1  0
 23 24  2  0
 24 25  2  0
 25 26  2  0
 26 27  2  0
 27 28  1  0
 12 29  1  0
 29 30  1  0
 30 31  1  0
 31 32  2  3
 32 33  1  0
 33 34  2  3
 34 35  1  0
 35 36  1  0
 30 37  2  3
 37 38  1  0
M  END
