
     RDKit          2D

 40 39  0  0  0  0  0  0  0  0999 V2000
    0.0000    0.0000    0.0000 C   0  0  0  0  0  0  0  0  0  0  0  0
    1.2990    0.7500    0.0000 C   0  0  0  0  0  0  0  0  0  0  0  0
    2.5981    1.5000    0.0000 C   0  0  0  0  0  0  0  0  0  0  0  0
    2.5981    3.0000    0.0000 C   0  0  0  0  0  0  0  0  0  0  0  0
    3.8971    3.7500    0.0000 C   0  0  0  0  0  0  0  0  0  0  0  0
    3.8971    5.2500    0.0000 C   0  0  0  0  0  0  0  0  0  0  0  0
    3.8971    6.7500    0.0000 C   0  0  0  0  0  0  0  0  0  0  0  0
    2.3971    5.2500    0.0000 C   0  0  0  0  0  0  0  0  0  0  0  0
    1.6471    6.5490    0.0000 C   0  0  0  0  0  0  0  0  0  0  0  0
    0.1471    6.5490    0.0000 C   0  0  0  0  0  0  0  0  0  0  0  0
   -0.6029    7.8481    0.0000 C   0  0  0  0  0  0  0  0  0  0  0  0
   -1.3529    9.1471    0.0000 C   0  0  0  0  0  0  0  0  0  0  0  0
   -0.6029   10.4462    0.0000 C   0  0  0  0  0  0  0  0  0  0  0  0
    5.3971    5.2500    0.0000 C   0  0  0  0  0  0  0  0  0  0  0  0
    5.3971    3.7500    0.0000 C   0  0  0  0  0  0  0  0  0  0  0  0
    6.6962    3.0000    0.0000 C   0  0  0  0  0  0  0  0  0  0  0  0
    6.8971    5.2500    0.0000 C   0  0  0  0  0  0  0  0  0  0  0  0
    7.6471    3.9510    0.0000 C   0  0  0  0  0  0  0  0  0  0  0  0
    8.3971    2.6519    0.0000 C   0  0  0  0  0  0  0  0  0  0  0  0
    7.6471    1.3529    0.0000 C   0  0  0  0  0  0  0  0  0  0  0  0
    6.1471    1.3529    0.0000 C   0  0  0  0  0  0  0  0  0  0  0  0
    8.3971    0.0538    0.0000 C   0  0  0  0  0  0  0  0  0  0  0  0
    5.3971    6.7500    0.0000 C   0  0  0  0  0  0  0  0  0  0  0  0
    6.6962    7.5000    0.0000 C   0  0  0  0  0  0  0  0  0  0  0  0
    6.6962    9.0000    0.0000 C   0  0  0  0  0  0  0  0  0  0  0  0
    7.9952    9.7500    0.0000 C   0  0  0  0  0  0  0  0  0  0  0  0
    7.9952   11.2500    0.0000 C   0  0  0  0  0  0  0  0  0  0  0  0
    9.2942   12.0000    0.0000 C   0  0  0  0  0  0  0  0  0  0  0  0
    6.6962   12.0000    0.0000 C   0  0  0  0  0  0  0  0  0  0  0  0
    6.6962   13.5000    0.0000 C   0  0  0  0  0  0  0  0  0  0  0  0
    5.3971   11.2500    0.0000 C   0  0  0  0  0  0  0  0  0  0  0  0
    4.0981   12.0000    0.0000 C   0  0  0  0  0  0  0  0  0  0  0  0
    5.3971    9.7500    0.0000 C   0  0  0  0  0  0  0  0  0  0  0  0
    4.0981    9.0000    0.0000 C   0  0  0  0  0  0  0  0  0  0  0  0
    2.7990    8.2500    0.0000 C   0  0  0  0  0  0  0  0  0  0  0  0
    2.7990    6.7500    0.0000 C   0  0  0  0  0  0  0  0  0  0  0  0
    4.0981    6.0000    0.0000 C   0  0  0  0  0  0  0  0  0  0  0  0
    1.5000    9.0000    0.0000 C   0  0  0  0  0  0  0  0  0  0  0  0
    1.5000   10.5000    0.0000 C   0  0  0  0  0  0  0  0  0  0  0  0
    0.2010   11.2500    0.0000 C   0  0  0  0  0  0  0  0  0  0  0  0
  1  2  2  0
  2  3  2  0
  3  4  1  0
  4  5  2  3
  5  6  1  0
  6  7  1  0
  6  8  1  0
  8  9  2  3
  9 10  1  0
 10 11  2  0
 11 12  2  0
 12 13  1  0
  6 14  1  0
 14 15  1  0
 15 16  2  0
 14 17  1  0
 17 18  2  0
 18 19  2  0
 19 20  1  0
 20 21  2  0
 20 22  1  0
 14 23  1  0
 23 24  1  0
 24 25  2  3
 25 26  1  0
 26 27  2  3
 27 28  1  0
 27 29  1  0
 29 30  1  0
 29 31  1  0
 31 32  2  0
 31 33  1  0
 33 34  2  0
 34 35  2  0
 35 36  1  0
 36 37  2  0
 35 38  1  0
 38 39  1  0
 39 40  1  0
M  END
