
     RDKit          2D

 40 39  0  0  0  0  0  0  0  0999 V2000
   -0.0000   -0.0000    0.0000 C   0  0  0  0  0  0  0  0  0  0  0  0
    1.2990    0.7500    0.0000 C   0  0  0  0  0  0  0  0  0  0  0  0
    2.5981   -0.0000    0.0000 C   0  0  0  0  0  0  0  0  0  0  0  0
    3.8971    0.7500    0.0000 C   0  0  0  0  0  0  0  0  0  0  0  0
    5.1962    1.5000    0.0000 C   0  0  0  0  0  0  0  0  0  0  0  0
    6.4952    2.2500    0.0000 C   0  0  0  0  0  0  0  0  0  0  0  0
    7.7942    1.5000    0.0000 C   0  0  0  0  0  0  0  0  0  0  0  0
    9.0933    2.2500    0.0000 C   0  0  0  0  0  0  0  0  0  0  0  0
    7.7942    0.0000    0.0000 C   0  0  0  0  0  0  0  0  0  0  0  0
    7.7942   -1.5000    0.0000 C   0  0  0  0  0  0  0  0  0  0  0  0
    6.4952   -2.2500    0.0000 C   0  0  0  0  0  0  0  0  0  0  0  0
    5.1962   -1.5000    0.0000 C   0  0  0  0  0  0  0  0  0  0  0  0
    3.8971   -2.2500    0.0000 C   0  0  0  0  0  0  0  0  0  0  0  0
    5.1962    0.0000    0.0000 C   0  0  0  0  0  0  0  0  0  0  0  0
    6.4952    0.7500    0.0000 C   0  0  0  0  0  0  0  0  0  0  0  0
    6.4952   -3.7500    0.0000 C   0  0  0  0  0  0  0  0  0  0  0  0
    4.9952   -3.7500    0.0000 C   0  0  0  0  0  0  0  0  0  0  0  0
    6.4952   -5.2500    0.0000 C   0  0  0  0  0  0  0  0  0  0  0  0
    5.1962   -6.0000    0.0000 C   0  0  0  0  0  0  0  0  0  0  0  0
    7.9952   -3.7500    0.0000 C   0  0  0  0  0  0  0  0  0  0  0  0
    8.7452   -5.0490    0.0000 C   0  0  0  0  0  0  0  0  0  0  0  0
    7.9952   -6.3481    0.0000 C   0  0  0  0  0  0  0  0  0  0  0  0
    8.7452   -7.6471    0.0000 C   0  0  0  0  0  0  0  0  0  0  0  0
   10.2452   -5.0490    0.0000 C   0  0  0  0  0  0  0  0  0  0  0  0
   10.9952   -6.3481    0.0000 C   0  0  0  0  0  0  0  0  0  0  0  0
   12.4952   -6.3481    0.0000 C   0  0  0  0  0  0  0  0  0  0  0  0
   12.4952   -4.8481    0.0000 C   0  0  0  0  0  0  0  0  0  0  0  0
   13.9952   -6.3481    0.0000 C   0  0  0  0  0  0  0  0  0  0  0  0
   14.7452   -5.0490    0.0000 C   0  0  0  0  0  0  0  0  0  0  0  0
   15.4952   -3.7500    0.0000 C   0  0  0  0  0  0  0  0  0  0  0  0
   14.7452   -2.4510    0.0000 C   0  0  0  0  0  0  0  0  0  0  0  0
   15.4952   -1.1519    0.0000 C   0  0  0  0  0  0  0  0  0  0  0  0
   14.7452    0.1471    0.0000 C   0  0  0  0  0  0  0  0  0  0  0  0
   15.4952    1.4462    0.0000 C   0  0  0  0  0  0  0  0  0  0  0  0
   14.7452    2.7452    0.0000 C   0  0  0  0  0  0  0  0  0  0  0  0
   15.4952    4.0442    0.0000 C   0  0  0  0  0  0  0  0  0  0  0  0
   12.4952   -7.8481    0.0000 C   0  0  0  0  0  0  0  0  0  0  0  0
   13.7942   -8.5981    0.0000 C   0  0  0  0  0  0  0  0  0  0  0  0
   13.7942  -10.0981    0.0000 C   0  0  0  0  0  0  0  0  0  0  0  0
   15.0933  -10.8481    0.0000 C   0  0  0  0  0  0  0  0  0  0  0  0
  1  2  2  0
  2  3  1  0
  3  4  2  0
  4  5  2  0
  5  6  2  0
  6  7  1  0
  7  8  1  0
  7  9  2  0
  9 10  2  0
 10 11  1  0
 11 12  2  3
 12 13  1  0
 12 14  1  0
 14 15  2  0
 11 16  1  0
 16 17  1  0
 16 18  1  0
 18 19  2  0
 16 20  1  0
 20 21  1  0
 21 22  1  0
 22 23  2  0
 21 24  2  3
 24 25  1  0
 25 26  1  0
 26 27  1  0
 26 28  1  0
 28 29  2  0
 29 30  2  0
 30 31  1  0
 31 32  1  0
 32 33  2  3
 33 34  1  0
 34 35  1  0
 35 36  2  0
 26 37  1  0
 37 38  1  0
 38 39  2  3
 39 40  1  0
M  END
