
     RDKit          2D

 38 37  0  0  0  0  0  0  0  0999 V2000
    0.0000    0.0000    0.0000 C   0  0  0  0  0  0  0  0  0  0  0  0
    1.2990    0.7500    0.0000 C   0  0  0  0  0  0  0  0  0  0  0  0
    2.5981   -0.0000    0.0000 C   0  0  0  0  0  0  0  0  0  0  0  0
    3.8971    0.7500    0.0000 C   0  0  0  0  0  0  0  0  0  0  0  0
    2.5981   -1.5000    0.0000 C   0  0  0  0  0  0  0  0  0  0  0  0
    3.8971   -2.2500    0.0000 C   0  0  0  0  0  0  0  0  0  0  0  0
    3.8971   -3.7500    0.0000 C   0  0  0  0  0  0  0  0  0  0  0  0
    5.1962   -1.5000    0.0000 C   0  0  0  0  0  0  0  0  0  0  0  0
    5.1962    0.0000    0.0000 C   0  0  0  0  0  0  0  0  0  0  0  0
    6.4952    0.7500    0.0000 C   0  0  0  0  0  0  0  0  0  0  0  0
    6.4952    2.2500    0.0000 C   0  0  0  0  0  0  0  0  0  0  0  0
    7.7942   -0.0000    0.0000 C   0  0  0  0  0  0  0  0  0  0  0  0
    9.0933    0.7500    0.0000 C   0  0  0  0  0  0  0  0  0  0  0  0
   10.3923   -0.0000    0.0000 C   0  0  0  0  0  0  0  0  0  0  0  0
   11.1423    1.2990    0.0000 C   0  0  0  0  0  0  0  0  0  0  0  0
   12.6423    1.2990    0.0000 C   0  0  0  0  0  0  0  0  0  0  0  0
   14.1423    1.2990    0.0000 C   0  0  0  0  0  0  0  0  0  0  0  0
   15.6423    1.2990    0.0000 C   0  0  0  0  0  0  0  0  0  0  0  0
   17.1423    1.2990    0.0000 C   0  0  0  0  0  0  0  0  0  0  0  0
   18.6423    1.2990    0.0000 C   0  0  0  0  0  0  0  0  0  0  0  0
   19.3923    2.5981    0.0000 C   0  0  0  0  0  0  0  0  0  0  0  0
   20.8923    2.5981    0.0000 C   0  0  0  0  0  0  0  0  0  0  0  0
   21.6423    3.8971    0.0000 C   0  0  0  0  0  0  0  0  0  0  0  0
   21.6423    1.2990    0.0000 C   0  0  0  0  0  0  0  0  0  0  0  0
   23.1423    1.2990    0.0000 C   0  0  0  0  0  0  0  0  0  0  0  0
   23.8923   -0.0000    0.0000 C   0  0  0  0  0  0  0  0  0  0  0  0
    9.6423   -1.2990    0.0000 C   0  0  0  0  0  0  0  0  0  0  0  0
    8.3024   -1.1345    0.0000 C   0  0  0  0  0  0  0  0  0  0  0  0
   10.3923   -2.5981    0.0000 C   0  0  0  0  0  0  0  0  0  0  0  0
   11.5982   -2.7462    0.0000 C   0  0  0  0  0  0  0  0  0  0  0  0
    9.6423   -3.8971    0.0000 C   0  0  0  0  0  0  0  0  0  0  0  0
    8.1423   -3.8971    0.0000 C   0  0  0  0  0  0  0  0  0  0  0  0
    7.3923   -5.1962    0.0000 C   0  0  0  0  0  0  0  0  0  0  0  0
   11.6913   -0.7500    0.0000 C   0  0  0  0  0  0  0  0  0  0  0  0
   12.9904    0.0000    0.0000 C   0  0  0  0  0  0  0  0  0  0  0  0
   11.8394   -1.9559    0.0000 C   0  0  0  0  0  0  0  0  0  0  0  0
    6.4952   -2.2500    0.0000 C   0  0  0  0  0  0  0  0  0  0  0  0
    7.5733   -1.4375    0.0000 C   0  0  0  0  0  0  0  0  0  0  0  0
  1  2  2  0
  2  3  1  0
  3  4  2  0
  3  5  1  0
  5  6  1  0
  6  7  2  0
  6  8  1  0
  8  9  1  0
  9 10  2  3
 10 11  1  0
 10 12  1  0
 12 13  1  0
 13 14  1  0
 14 15  1  0
 15 16  2  0
 16 17  2  0
 17 18  2  0
 18 19  2  0
 19 20  2  0
 20 21  1  0
 21 22  1  0
 22 23  2  0
 22 24  1  0
 24 25  2  3
 25 26  1  0
 14 27  1  0
 27 28  2  0
 27 29  1  0
 29 30  2  0
 29 31  1  0
 31 32  2  3
 32 33  1  0
 14 34  1  0
 34 35  1  0
 34 36  1  0
  8 37  2  3
 37 38  1  0
M  END
