
     RDKit          2D

 40 39  0  0  0  0  0  0  0  0999 V2000
    0.0000    0.0000    0.0000 C   0  0  0  0  0  0  0  0  0  0  0  0
    1.2990    0.7500    0.0000 C   0  0  0  0  0  0  0  0  0  0  0  0
    2.5981    1.5000    0.0000 C   0  0  0  0  0  0  0  0  0  0  0  0
    2.5981    3.0000    0.0000 C   0  0  0  0  0  0  0  0  0  0  0  0
    3.8971    3.7500    0.0000 C   0  0  0  0  0  0  0  0  0  0  0  0
    5.1962    4.5000    0.0000 C   0  0  0  0  0  0  0  0  0  0  0  0
    6.4952    3.7500    0.0000 C   0  0  0  0  0  0  0  0  0  0  0  0
    3.1471    5.0490    0.0000 C   0  0  0  0  0  0  0  0  0  0  0  0
    1.6471    5.0490    0.0000 C   0  0  0  0  0  0  0  0  0  0  0  0
    0.8971    6.3481    0.0000 C   0  0  0  0  0  0  0  0  0  0  0  0
   -0.6029    6.3481    0.0000 C   0  0  0  0  0  0  0  0  0  0  0  0
   -1.3529    7.6471    0.0000 C   0  0  0  0  0  0  0  0  0  0  0  0
   -2.8529    7.6471    0.0000 C   0  0  0  0  0  0  0  0  0  0  0  0
   -3.6029    8.9462    0.0000 C   0  0  0  0  0  0  0  0  0  0  0  0
   -5.1029    8.9462    0.0000 C   0  0  0  0  0  0  0  0  0  0  0  0
   -5.8529   10.2452    0.0000 C   0  0  0  0  0  0  0  0  0  0  0  0
    3.8971    6.3481    0.0000 C   0  0  0  0  0  0  0  0  0  0  0  0
    3.1471    7.6471    0.0000 C   0  0  0  0  0  0  0  0  0  0  0  0
    3.8971    8.9462    0.0000 C   0  0  0  0  0  0  0  0  0  0  0  0
    5.3971    6.3481    0.0000 C   0  0  0  0  0  0  0  0  0  0  0  0
    6.1471    7.6471    0.0000 C   0  0  0  0  0  0  0  0  0  0  0  0
    4.6471    2.4510    0.0000 C   0  0  0  0  0  0  0  0  0  0  0  0
    3.8971    1.1519    0.0000 C   0  0  0  0  0  0  0  0  0  0  0  0
    4.6471   -0.1471    0.0000 C   0  0  0  0  0  0  0  0  0  0  0  0
    6.1471    2.4510    0.0000 C   0  0  0  0  0  0  0  0  0  0  0  0
    6.8971    1.1519    0.0000 C   0  0  0  0  0  0  0  0  0  0  0  0
    7.6471   -0.1471    0.0000 C   0  0  0  0  0  0  0  0  0  0  0  0
    8.3971   -1.4462    0.0000 C   0  0  0  0  0  0  0  0  0  0  0  0
    9.8971   -1.4462    0.0000 C   0  0  0  0  0  0  0  0  0  0  0  0
   10.6471   -2.7452    0.0000 C   0  0  0  0  0  0  0  0  0  0  0  0
   12.1471   -2.7452    0.0000 C   0  0  0  0  0  0  0  0  0  0  0  0
   12.8971   -4.0442    0.0000 C   0  0  0  0  0  0  0  0  0  0  0  0
   14.3971   -4.0442    0.0000 C   0  0  0  0  0  0  0  0  0  0  0  0
   12.8971   -1.4462    0.0000 C   0  0  0  0  0  0  0  0  0  0  0  0
   12.1471   -0.1471    0.0000 C   0  0  0  0  0  0  0  0  0  0  0  0
   14.3971   -1.4462    0.0000 C   0  0  0  0  0  0  0  0  0  0  0  0
    3.8971    0.7500    0.0000 C   0  0  0  0  0  0  0  0  0  0  0  0
    3.8971   -0.7500    0.0000 C   0  0  0  0  0  0  0  0  0  0  0  0
    5.1962    1.5000    0.0000 C   0  0  0  0  0  0  0  0  0  0  0  0
    6.2751    0.4580    0.0000 C   0  0  0  0  0  0  0  0  0  0  0  0
  1  2  2  0
  2  3  2  0
  3  4  1  0
  4  5  1  0
  5  6  1  0
  6  7  1  0
  5  8  1  0
  8  9  2  3
  9 10  1  0
 10 11  1  0
 11 12  2  3
 12 13  1  0
 13 14  1  0
 14 15  1  0
 15 16  2  0
  8 17  1  0
 17 18  1  0
 18 19  2  0
 17 20  1  0
 20 21  2  0
  5 22  1  0
 22 23  1  0
 23 24  2  0
 22 25  1  0
 25 26  2  0
 26 27  2  0
 27 28  2  0
 28 29  1  0
 29 30  2  3
 30 31  1  0
 31 32  2  3
 32 33  1  0
 31 34  1  0
 34 35  2  0
 34 36  1  0
  3 37  1  0
 37 38  2  0
 37 39  1  0
 39 40  2  0
M  END
