
     RDKit          2D

 38 37  0  0  0  0  0  0  0  0999 V2000
    0.0000    0.0000    0.0000 C   0  0  0  0  0  0  0  0  0  0  0  0
    1.2990    0.7500    0.0000 C   0  0  0  0  0  0  0  0  0  0  0  0
    2.5981    1.5000    0.0000 C   0  0  0  0  0  0  0  0  0  0  0  0
    2.5981    3.0000    0.0000 C   0  0  0  0  0  0  0  0  0  0  0  0
    3.8971    3.7500    0.0000 C   0  0  0  0  0  0  0  0  0  0  0  0
    3.8971    5.2500    0.0000 C   0  0  0  0  0  0  0  0  0  0  0  0
    5.1962    6.0000    0.0000 C   0  0  0  0  0  0  0  0  0  0  0  0
    5.1962    7.5000    0.0000 C   0  0  0  0  0  0  0  0  0  0  0  0
    6.4952    5.2500    0.0000 C   0  0  0  0  0  0  0  0  0  0  0  0
    7.7942    6.0000    0.0000 C   0  0  0  0  0  0  0  0  0  0  0  0
    7.0442    7.2990    0.0000 C   0  0  0  0  0  0  0  0  0  0  0  0
    8.5442    4.7010    0.0000 C   0  0  0  0  0  0  0  0  0  0  0  0
   10.0442    4.7010    0.0000 C   0  0  0  0  0  0  0  0  0  0  0  0
   10.7942    3.4019    0.0000 C   0  0  0  0  0  0  0  0  0  0  0  0
   11.5442    2.1029    0.0000 C   0  0  0  0  0  0  0  0  0  0  0  0
   12.2942    0.8038    0.0000 C   0  0  0  0  0  0  0  0  0  0  0  0
   13.0442   -0.4952    0.0000 C   0  0  0  0  0  0  0  0  0  0  0  0
   12.2942   -1.7942    0.0000 C   0  0  0  0  0  0  0  0  0  0  0  0
   14.5442   -0.4952    0.0000 C   0  0  0  0  0  0  0  0  0  0  0  0
   15.2942   -1.7942    0.0000 C   0  0  0  0  0  0  0  0  0  0  0  0
   16.7942   -1.7942    0.0000 C   0  0  0  0  0  0  0  0  0  0  0  0
   17.5442   -3.0933    0.0000 C   0  0  0  0  0  0  0  0  0  0  0  0
   19.0442   -3.0933    0.0000 C   0  0  0  0  0  0  0  0  0  0  0  0
   16.7942   -4.3923    0.0000 C   0  0  0  0  0  0  0  0  0  0  0  0
   17.5442   -5.6913    0.0000 C   0  0  0  0  0  0  0  0  0  0  0  0
   16.7942   -6.9904    0.0000 C   0  0  0  0  0  0  0  0  0  0  0  0
   15.2942   -4.3923    0.0000 C   0  0  0  0  0  0  0  0  0  0  0  0
   14.5442   -5.6913    0.0000 C   0  0  0  0  0  0  0  0  0  0  0  0
   14.5442   -3.0933    0.0000 C   0  0  0  0  0  0  0  0  0  0  0  0
    9.0933    6.7500    0.0000 C   0  0  0  0  0  0  0  0  0  0  0  0
   10.3923    6.0000    0.0000 C   0  0  0  0  0  0  0  0  0  0  0  0
   11.6913    6.7500    0.0000 C   0  0  0  0  0  0  0  0  0  0  0  0
   12.9904    6.0000    0.0000 C   0  0  0  0  0  0  0  0  0  0  0  0
   14.2894    6.7500    0.0000 C   0  0  0  0  0  0  0  0  0  0  0  0
    9.0933    8.2500    0.0000 C   0  0  0  0  0  0  0  0  0  0  0  0
    7.7942    9.0000    0.0000 C   0  0  0  0  0  0  0  0  0  0  0  0
   10.3923    9.0000    0.0000 C   0  0  0  0  0  0  0  0  0  0  0  0
   10.3923   10.5000    0.0000 C   0  0  0  0  0  0  0  0  0  0  0  0
  1  2  2  0
  2  3  2  0
  3  4  1  0
  4  5  1  0
  5  6  2  3
  6  7  1  0
  7  8  2  0
  7  9  1  0
  9 10  1  0
 10 11  1  0
 10 12  1  0
 12 13  1  0
 13 14  2  0
 14 15  2  0
 15 16  2  0
 16 17  2  0
 17 18  1  0
 17 19  1  0
 19 20  2  3
 20 21  1  0
 21 22  2  3
 22 23  1  0
 22 24  1  0
 24 25  1  0
 25 26  2  0
 24 27  2  0
 27 28  1  0
 27 29  1  0
 10 30  1  0
 30 31  1  0
 31 32  1  0
 32 33  2  3
 33 34  1  0
 30 35  2  3
 35 36  1  0
 35 37  1  0
 37 38  2  0
M  END
