
     RDKit          2D

 38 37  0  0  0  0  0  0  0  0999 V2000
    0.0000    0.0000    0.0000 C   0  0  0  0  0  0  0  0  0  0  0  0
    1.2990    0.7500    0.0000 C   0  0  0  0  0  0  0  0  0  0  0  0
    2.5981    1.5000    0.0000 C   0  0  0  0  0  0  0  0  0  0  0  0
    3.8971    2.2500    0.0000 C   0  0  0  0  0  0  0  0  0  0  0  0
    5.1962    1.5000    0.0000 C   0  0  0  0  0  0  0  0  0  0  0  0
    3.8971    3.7500    0.0000 C   0  0  0  0  0  0  0  0  0  0  0  0
    5.1962    4.5000    0.0000 C   0  0  0  0  0  0  0  0  0  0  0  0
    6.4952    3.7500    0.0000 C   0  0  0  0  0  0  0  0  0  0  0  0
    5.1962    6.0000    0.0000 C   0  0  0  0  0  0  0  0  0  0  0  0
    2.5981    4.5000    0.0000 C   0  0  0  0  0  0  0  0  0  0  0  0
    3.3481    5.7990    0.0000 C   0  0  0  0  0  0  0  0  0  0  0  0
    2.5981    7.0981    0.0000 C   0  0  0  0  0  0  0  0  0  0  0  0
    3.3481    8.3971    0.0000 C   0  0  0  0  0  0  0  0  0  0  0  0
    2.5981    9.6962    0.0000 C   0  0  0  0  0  0  0  0  0  0  0  0
    3.3481   10.9952    0.0000 C   0  0  0  0  0  0  0  0  0  0  0  0
    4.8481    8.3971    0.0000 C   0  0  0  0  0  0  0  0  0  0  0  0
    5.5981    9.6962    0.0000 C   0  0  0  0  0  0  0  0  0  0  0  0
    5.5981    7.0981    0.0000 C   0  0  0  0  0  0  0  0  0  0  0  0
    7.0981    7.0981    0.0000 C   0  0  0  0  0  0  0  0  0  0  0  0
    7.8481    5.7990    0.0000 C   0  0  0  0  0  0  0  0  0  0  0  0
    9.3481    5.7990    0.0000 C   0  0  0  0  0  0  0  0  0  0  0  0
    1.8481    3.2010    0.0000 C   0  0  0  0  0  0  0  0  0  0  0  0
    0.3481    3.2010    0.0000 C   0  0  0  0  0  0  0  0  0  0  0  0
   -0.4019    1.9019    0.0000 C   0  0  0  0  0  0  0  0  0  0  0  0
   -1.1519    0.6029    0.0000 C   0  0  0  0  0  0  0  0  0  0  0  0
    1.2990    5.2500    0.0000 C   0  0  0  0  0  0  0  0  0  0  0  0
    1.2990    6.7500    0.0000 C   0  0  0  0  0  0  0  0  0  0  0  0
   -0.0000    7.5000    0.0000 C   0  0  0  0  0  0  0  0  0  0  0  0
   -0.0000    9.0000    0.0000 C   0  0  0  0  0  0  0  0  0  0  0  0
   -1.4419    7.0866    0.0000 C   0  0  0  0  0  0  0  0  0  0  0  0
   -0.0000    4.5000    0.0000 C   0  0  0  0  0  0  0  0  0  0  0  0
   -0.0000    3.0000    0.0000 C   0  0  0  0  0  0  0  0  0  0  0  0
   -1.2990    2.2500    0.0000 C   0  0  0  0  0  0  0  0  0  0  0  0
   -1.2990    5.2500    0.0000 C   0  0  0  0  0  0  0  0  0  0  0  0
   -2.5981    4.5000    0.0000 C   0  0  0  0  0  0  0  0  0  0  0  0
   -1.2990    6.7500    0.0000 C   0  0  0  0  0  0  0  0  0  0  0  0
   -2.5981    7.5000    0.0000 C   0  0  0  0  0  0  0  0  0  0  0  0
   -3.8971    8.2500    0.0000 C   0  0  0  0  0  0  0  0  0  0  0  0
  1  2  2  0
  2  3  2  0
  3  4  2  0
  4  5  1  0
  4  6  1  0
  6  7  1  0
  7  8  2  0
  7  9  1  0
  6 10  1  0
 10 11  1  0
 11 12  2  3
 12 13  1  0
 13 14  2  3
 14 15  1  0
 13 16  1  0
 16 17  2  0
 16 18  1  0
 18 19  2  3
 19 20  1  0
 20 21  1  0
 10 22  1  0
 22 23  1  0
 23 24  2  0
 24 25  2  0
 10 26  1  0
 26 27  2  3
 27 28  1  0
 28 29  1  0
 28 30  1  0
 26 31  1  0
 31 32  1  0
 32 33  2  0
 31 34  2  3
 34 35  1  0
 34 36  1  0
 36 37  2  0
 37 38  2  0
M  END
