
     RDKit          2D

 28 27  0  0  0  0  0  0  0  0999 V2000
    6.4952   -2.2500    0.0000 C   0  0  0  0  0  0  0  0  0  0  0  0
    5.1962   -1.5000    0.0000 C   0  0  0  0  0  0  0  0  0  0  0  0
    3.8971   -0.7500    0.0000 C   0  0  0  0  0  0  0  0  0  0  0  0
    2.5981   -1.5000    0.0000 C   0  0  0  0  0  0  0  0  0  0  0  0
    1.2990   -0.7500    0.0000 C   0  0  0  0  0  0  0  0  0  0  0  0
   -0.0000   -1.5000    0.0000 C   0  0  0  0  0  0  0  0  0  0  0  0
    1.2990    0.7500    0.0000 C   0  0  0  0  0  0  0  0  0  0  0  0
    1.2990    2.2500    0.0000 C   0  0  0  0  0  0  0  0  0  0  0  0
    2.5981    3.0000    0.0000 C   0  0  0  0  0  0  0  0  0  0  0  0
    3.8971    0.7500    0.0000 C   0  0  0  0  0  0  0  0  0  0  0  0
    2.5981    1.5000    0.0000 C   0  0  0  0  0  0  0  0  0  0  0  0
    5.1962    1.5000    0.0000 C   0  0  0  0  0  0  0  0  0  0  0  0
    6.4952    2.2500    0.0000 C   0  0  0  0  0  0  0  0  0  0  0  0
    6.4952    3.7500    0.0000 C   0  0  0  0  0  0  0  0  0  0  0  0
    7.7942    4.5000    0.0000 C   0  0  0  0  0  0  0  0  0  0  0  0
    7.7942    6.0000    0.0000 C   0  0  0  0  0  0  0  0  0  0  0  0
    9.2942    6.0000    0.0000 C   0  0  0  0  0  0  0  0  0  0  0  0
   10.0442    7.2990    0.0000 C   0  0  0  0  0  0  0  0  0  0  0  0
    6.2942    6.0000    0.0000 C   0  0  0  0  0  0  0  0  0  0  0  0
    5.5442    7.2990    0.0000 C   0  0  0  0  0  0  0  0  0  0  0  0
    4.0442    7.2990    0.0000 C   0  0  0  0  0  0  0  0  0  0  0  0
    7.7942    7.5000    0.0000 C   0  0  0  0  0  0  0  0  0  0  0  0
    6.4952    8.2500    0.0000 C   0  0  0  0  0  0  0  0  0  0  0  0
    6.4952    9.7500    0.0000 C   0  0  0  0  0  0  0  0  0  0  0  0
    5.1962   10.5000    0.0000 C   0  0  0  0  0  0  0  0  0  0  0  0
    5.1962   12.0000    0.0000 C   0  0  0  0  0  0  0  0  0  0  0  0
    3.8971    9.7500    0.0000 C   0  0  0  0  0  0  0  0  0  0  0  0
    2.5981   10.5000    0.0000 C   0  0  0  0  0  0  0  0  0  0  0  0
  1  2  2  0
  2  3  2  0
  3  4  1  0
  4  5  1  0
  5  6  1  0
  5  7  2  0
  7  8  2  0
  8  9  1  0
  3 10  1  0
 10 11  1  0
 10 12  2  0
 12 13  2  0
 13 14  1  0
 14 15  2  3
 15 16  1  0
 16 17  1  0
 17 18  2  0
 16 19  1  0
 19 20  2  3
 20 21  1  0
 16 22  1  0
 22 23  2  3
 23 24  1  0
 24 25  2  3
 25 26  1  0
 25 27  1  0
 27 28  1  0
M  END
