
     RDKit          2D

 38 37  0  0  0  0  0  0  0  0999 V2000
    0.0000   -0.0000    0.0000 C   0  0  0  0  0  0  0  0  0  0  0  0
    1.2990    0.7500    0.0000 C   0  0  0  0  0  0  0  0  0  0  0  0
    2.5981    1.5000    0.0000 C   0  0  0  0  0  0  0  0  0  0  0  0
    3.8971    2.2500    0.0000 C   0  0  0  0  0  0  0  0  0  0  0  0
    5.1962    1.5000    0.0000 C   0  0  0  0  0  0  0  0  0  0  0  0
    6.4952    2.2500    0.0000 C   0  0  0  0  0  0  0  0  0  0  0  0
    7.7942    1.5000    0.0000 C   0  0  0  0  0  0  0  0  0  0  0  0
    7.7942   -0.0000    0.0000 C   0  0  0  0  0  0  0  0  0  0  0  0
    9.0933   -0.7500    0.0000 C   0  0  0  0  0  0  0  0  0  0  0  0
   10.3923   -1.5000    0.0000 C   0  0  0  0  0  0  0  0  0  0  0  0
    9.0933    2.2500    0.0000 C   0  0  0  0  0  0  0  0  0  0  0  0
   10.0636    1.5188    0.0000 C   0  0  0  0  0  0  0  0  0  0  0  0
    9.0933    3.7500    0.0000 C   0  0  0  0  0  0  0  0  0  0  0  0
   10.3923    4.5000    0.0000 C   0  0  0  0  0  0  0  0  0  0  0  0
   11.6913    5.2500    0.0000 C   0  0  0  0  0  0  0  0  0  0  0  0
   12.7425    4.9486    0.0000 C   0  0  0  0  0  0  0  0  0  0  0  0
    9.6423    5.7990    0.0000 C   0  0  0  0  0  0  0  0  0  0  0  0
   10.3923    7.0981    0.0000 C   0  0  0  0  0  0  0  0  0  0  0  0
    8.1423    5.7990    0.0000 C   0  0  0  0  0  0  0  0  0  0  0  0
    7.3923    7.0981    0.0000 C   0  0  0  0  0  0  0  0  0  0  0  0
    6.6423    8.3971    0.0000 C   0  0  0  0  0  0  0  0  0  0  0  0
    5.8923    9.6962    0.0000 C   0  0  0  0  0  0  0  0  0  0  0  0
    4.3923    9.6962    0.0000 C   0  0  0  0  0  0  0  0  0  0  0  0
    3.6423   10.9952    0.0000 C   0  0  0  0  0  0  0  0  0  0  0  0
    3.6423    8.3971    0.0000 C   0  0  0  0  0  0  0  0  0  0  0  0
    2.1423    8.3971    0.0000 C   0  0  0  0  0  0  0  0  0  0  0  0
    4.3923    7.0981    0.0000 C   0  0  0  0  0  0  0  0  0  0  0  0
    5.1423    5.7990    0.0000 C   0  0  0  0  0  0  0  0  0  0  0  0
    7.3923    4.5000    0.0000 C   0  0  0  0  0  0  0  0  0  0  0  0
    5.8923    4.5000    0.0000 C   0  0  0  0  0  0  0  0  0  0  0  0
    4.3923    4.5000    0.0000 C   0  0  0  0  0  0  0  0  0  0  0  0
    2.8923    4.5000    0.0000 C   0  0  0  0  0  0  0  0  0  0  0  0
   11.1423    3.2010    0.0000 C   0  0  0  0  0  0  0  0  0  0  0  0
   10.6676    2.0825    0.0000 C   0  0  0  0  0  0  0  0  0  0  0  0
   12.6423    3.2010    0.0000 C   0  0  0  0  0  0  0  0  0  0  0  0
   13.3923    1.9019    0.0000 C   0  0  0  0  0  0  0  0  0  0  0  0
   13.3923    4.5000    0.0000 C   0  0  0  0  0  0  0  0  0  0  0  0
   12.6423    5.7990    0.0000 C   0  0  0  0  0  0  0  0  0  0  0  0
  1  2  2  0
  2  3  2  0
  3  4  2  0
  4  5  1  0
  5  6  1  0
  6  7  1  0
  7  8  1  0
  8  9  2  0
  9 10  2  0
  7 11  1  0
 11 12  1  0
 11 13  1  0
 13 14  1  0
 14 15  1  0
 15 16  1  0
 14 17  1  0
 17 18  2  0
 17 19  1  0
 19 20  2  0
 20 21  2  0
 21 22  2  0
 22 23  1  0
 23 24  1  0
 23 25  1  0
 25 26  1  0
 25 27  2  0
 27 28  2  0
 19 29  1  0
 29 30  2  0
 30 31  2  0
 31 32  2  0
 14 33  1  0
 33 34  2  0
 33 35  1  0
 35 36  1  0
 35 37  1  0
 37 38  1  0
M  END
