
     RDKit          2D

 40 39  0  0  0  0  0  0  0  0999 V2000
    0.0000    0.0000    0.0000 C   0  0  0  0  0  0  0  0  0  0  0  0
    1.2990    0.7500    0.0000 C   0  0  0  0  0  0  0  0  0  0  0  0
    2.5981    1.5000    0.0000 C   0  0  0  0  0  0  0  0  0  0  0  0
    2.5981    3.0000    0.0000 C   0  0  0  0  0  0  0  0  0  0  0  0
    3.8971    0.7500    0.0000 C   0  0  0  0  0  0  0  0  0  0  0  0
    3.8971   -0.7500    0.0000 C   0  0  0  0  0  0  0  0  0  0  0  0
    3.8971   -2.2500    0.0000 C   0  0  0  0  0  0  0  0  0  0  0  0
    5.1962   -3.0000    0.0000 C   0  0  0  0  0  0  0  0  0  0  0  0
    5.1962   -4.5000    0.0000 C   0  0  0  0  0  0  0  0  0  0  0  0
    6.4952   -5.2500    0.0000 C   0  0  0  0  0  0  0  0  0  0  0  0
    6.4952   -6.7500    0.0000 C   0  0  0  0  0  0  0  0  0  0  0  0
    7.7942   -7.5000    0.0000 C   0  0  0  0  0  0  0  0  0  0  0  0
    7.7942   -9.0000    0.0000 C   0  0  0  0  0  0  0  0  0  0  0  0
    9.0933   -6.7500    0.0000 C   0  0  0  0  0  0  0  0  0  0  0  0
   10.3923   -7.5000    0.0000 C   0  0  0  0  0  0  0  0  0  0  0  0
   11.6913   -6.7500    0.0000 C   0  0  0  0  0  0  0  0  0  0  0  0
   12.9904   -6.0000    0.0000 C   0  0  0  0  0  0  0  0  0  0  0  0
   10.9413   -5.4510    0.0000 C   0  0  0  0  0  0  0  0  0  0  0  0
   11.6913   -4.1519    0.0000 C   0  0  0  0  0  0  0  0  0  0  0  0
   10.9413   -2.8529    0.0000 C   0  0  0  0  0  0  0  0  0  0  0  0
   11.6913   -1.5538    0.0000 C   0  0  0  0  0  0  0  0  0  0  0  0
   10.9413   -0.2548    0.0000 C   0  0  0  0  0  0  0  0  0  0  0  0
   13.1913   -1.5538    0.0000 C   0  0  0  0  0  0  0  0  0  0  0  0
   14.6913   -1.5538    0.0000 C   0  0  0  0  0  0  0  0  0  0  0  0
   12.4413   -8.0490    0.0000 C   0  0  0  0  0  0  0  0  0  0  0  0
   11.6913   -9.3481    0.0000 C   0  0  0  0  0  0  0  0  0  0  0  0
   12.4413  -10.6471    0.0000 C   0  0  0  0  0  0  0  0  0  0  0  0
   13.9413   -8.0490    0.0000 C   0  0  0  0  0  0  0  0  0  0  0  0
   14.6913   -9.3481    0.0000 C   0  0  0  0  0  0  0  0  0  0  0  0
   16.1913   -9.3481    0.0000 C   0  0  0  0  0  0  0  0  0  0  0  0
   14.6913   -6.7500    0.0000 C   0  0  0  0  0  0  0  0  0  0  0  0
   13.9413   -5.4510    0.0000 C   0  0  0  0  0  0  0  0  0  0  0  0
   12.4413   -5.4510    0.0000 C   0  0  0  0  0  0  0  0  0  0  0  0
   16.1913   -6.7500    0.0000 C   0  0  0  0  0  0  0  0  0  0  0  0
   16.9413   -8.0490    0.0000 C   0  0  0  0  0  0  0  0  0  0  0  0
   18.4413   -8.0490    0.0000 C   0  0  0  0  0  0  0  0  0  0  0  0
   19.1913   -9.3481    0.0000 C   0  0  0  0  0  0  0  0  0  0  0  0
   20.6913   -9.3481    0.0000 C   0  0  0  0  0  0  0  0  0  0  0  0
    2.5981   -3.0000    0.0000 C   0  0  0  0  0  0  0  0  0  0  0  0
    2.5981   -4.5000    0.0000 C   0  0  0  0  0  0  0  0  0  0  0  0
  1  2  2  0
  2  3  2  0
  3  4  1  0
  3  5  1  0
  5  6  2  0
  6  7  2  0
  7  8  1  0
  8  9  2  3
  9 10  1  0
 10 11  2  3
 11 12  1  0
 12 13  1  0
 12 14  2  3
 14 15  1  0
 15 16  1  0
 16 17  1  0
 16 18  1  0
 18 19  2  3
 19 20  1  0
 20 21  1  0
 21 22  1  0
 21 23  2  0
 23 24  2  0
 16 25  1  0
 25 26  1  0
 26 27  1  0
 25 28  2  3
 28 29  1  0
 29 30  2  0
 28 31  1  0
 31 32  1  0
 32 33  2  0
 31 34  2  3
 34 35  1  0
 35 36  2  3
 36 37  1  0
 37 38  2  0
  7 39  1  0
 39 40  1  0
M  END
