
     RDKit          2D

 40 39  0  0  0  0  0  0  0  0999 V2000
    0.0000    0.0000    0.0000 C   0  0  0  0  0  0  0  0  0  0  0  0
    1.2990    0.7500    0.0000 C   0  0  0  0  0  0  0  0  0  0  0  0
    2.5981    1.5000    0.0000 C   0  0  0  0  0  0  0  0  0  0  0  0
    2.5981    3.0000    0.0000 C   0  0  0  0  0  0  0  0  0  0  0  0
    3.8971    3.7500    0.0000 C   0  0  0  0  0  0  0  0  0  0  0  0
    3.8971    5.2500    0.0000 C   0  0  0  0  0  0  0  0  0  0  0  0
    3.8971    0.7500    0.0000 C   0  0  0  0  0  0  0  0  0  0  0  0
    5.1962    1.5000    0.0000 C   0  0  0  0  0  0  0  0  0  0  0  0
    6.4952    2.2500    0.0000 C   0  0  0  0  0  0  0  0  0  0  0  0
    3.8971   -0.7500    0.0000 C   0  0  0  0  0  0  0  0  0  0  0  0
    5.1962   -1.5000    0.0000 C   0  0  0  0  0  0  0  0  0  0  0  0
    5.1962   -3.0000    0.0000 C   0  0  0  0  0  0  0  0  0  0  0  0
    6.4952   -3.7500    0.0000 C   0  0  0  0  0  0  0  0  0  0  0  0
    7.7942   -3.0000    0.0000 C   0  0  0  0  0  0  0  0  0  0  0  0
    9.0933   -2.2500    0.0000 C   0  0  0  0  0  0  0  0  0  0  0  0
    6.4952   -5.2500    0.0000 C   0  0  0  0  0  0  0  0  0  0  0  0
    4.9952   -5.2500    0.0000 C   0  0  0  0  0  0  0  0  0  0  0  0
    4.2452   -6.5490    0.0000 C   0  0  0  0  0  0  0  0  0  0  0  0
    2.7452   -6.5490    0.0000 C   0  0  0  0  0  0  0  0  0  0  0  0
    6.4952   -6.7500    0.0000 C   0  0  0  0  0  0  0  0  0  0  0  0
    5.1962   -7.5000    0.0000 C   0  0  0  0  0  0  0  0  0  0  0  0
    5.1962   -9.0000    0.0000 C   0  0  0  0  0  0  0  0  0  0  0  0
    7.9952   -5.2500    0.0000 C   0  0  0  0  0  0  0  0  0  0  0  0
    8.7452   -6.5490    0.0000 C   0  0  0  0  0  0  0  0  0  0  0  0
    7.9952   -7.8481    0.0000 C   0  0  0  0  0  0  0  0  0  0  0  0
    8.7452   -9.1471    0.0000 C   0  0  0  0  0  0  0  0  0  0  0  0
    7.9952  -10.4462    0.0000 C   0  0  0  0  0  0  0  0  0  0  0  0
    8.7452  -11.7452    0.0000 C   0  0  0  0  0  0  0  0  0  0  0  0
   10.2452   -6.5490    0.0000 C   0  0  0  0  0  0  0  0  0  0  0  0
   10.9952   -7.8481    0.0000 C   0  0  0  0  0  0  0  0  0  0  0  0
   12.4952   -7.8481    0.0000 C   0  0  0  0  0  0  0  0  0  0  0  0
   13.2452   -9.1471    0.0000 C   0  0  0  0  0  0  0  0  0  0  0  0
   13.9952  -10.4462    0.0000 C   0  0  0  0  0  0  0  0  0  0  0  0
   13.2452   -6.5490    0.0000 C   0  0  0  0  0  0  0  0  0  0  0  0
   12.4952   -5.2500    0.0000 C   0  0  0  0  0  0  0  0  0  0  0  0
   11.7452   -3.9510    0.0000 C   0  0  0  0  0  0  0  0  0  0  0  0
   14.7452   -6.5490    0.0000 C   0  0  0  0  0  0  0  0  0  0  0  0
   15.4952   -5.2500    0.0000 C   0  0  0  0  0  0  0  0  0  0  0  0
   16.9952   -5.2500    0.0000 C   0  0  0  0  0  0  0  0  0  0  0  0
   17.7452   -3.9510    0.0000 C   0  0  0  0  0  0  0  0  0  0  0  0
  1  2  2  0
  2  3  2  0
  3  4  1  0
  4  5  2  3
  5  6  1  0
  3  7  1  0
  7  8  2  0
  8  9  2  0
  7 10  1  0
 10 11  1  0
 11 12  2  3
 12 13  1  0
 13 14  2  0
 14 15  2  0
 13 16  1  0
 16 17  1  0
 17 18  2  3
 18 19  1  0
 16 20  1  0
 20 21  2  3
 21 22  1  0
 16 23  1  0
 23 24  1  0
 24 25  2  3
 25 26  1  0
 26 27  1  0
 27 28  1  0
 24 29  1  0
 29 30  1  0
 30 31  1  0
 31 32  2  0
 32 33  2  0
 31 34  1  0
 34 35  2  0
 35 36  2  0
 34 37  1  0
 37 38  1  0
 38 39  1  0
 39 40  2  0
M  END
