
     RDKit          2D

 30 29  0  0  0  0  0  0  0  0999 V2000
    3.8971   -6.7500    0.0000 C   0  0  0  0  0  0  0  0  0  0  0  0
    5.1962   -6.0000    0.0000 C   0  0  0  0  0  0  0  0  0  0  0  0
    6.4952   -5.2500    0.0000 C   0  0  0  0  0  0  0  0  0  0  0  0
    7.7942   -4.5000    0.0000 C   0  0  0  0  0  0  0  0  0  0  0  0
    7.7942   -3.0000    0.0000 C   0  0  0  0  0  0  0  0  0  0  0  0
    9.0933   -2.2500    0.0000 C   0  0  0  0  0  0  0  0  0  0  0  0
    6.4952   -2.2500    0.0000 C   0  0  0  0  0  0  0  0  0  0  0  0
    6.4952   -0.7500    0.0000 C   0  0  0  0  0  0  0  0  0  0  0  0
    5.1962   -0.0000    0.0000 C   0  0  0  0  0  0  0  0  0  0  0  0
    4.8332    1.4554    0.0000 C   0  0  0  0  0  0  0  0  0  0  0  0
    3.8971   -0.7500    0.0000 C   0  0  0  0  0  0  0  0  0  0  0  0
    2.5981   -0.0000    0.0000 C   0  0  0  0  0  0  0  0  0  0  0  0
    1.2990   -0.7500    0.0000 C   0  0  0  0  0  0  0  0  0  0  0  0
    7.7942   -0.0000    0.0000 C   0  0  0  0  0  0  0  0  0  0  0  0
    9.0933    0.7500    0.0000 C   0  0  0  0  0  0  0  0  0  0  0  0
    8.5442   -1.2990    0.0000 C   0  0  0  0  0  0  0  0  0  0  0  0
   10.0442   -1.2990    0.0000 C   0  0  0  0  0  0  0  0  0  0  0  0
   11.5442   -1.2990    0.0000 C   0  0  0  0  0  0  0  0  0  0  0  0
    7.0442    1.2990    0.0000 C   0  0  0  0  0  0  0  0  0  0  0  0
    5.5442    1.2990    0.0000 C   0  0  0  0  0  0  0  0  0  0  0  0
    4.7942    2.5981    0.0000 C   0  0  0  0  0  0  0  0  0  0  0  0
    7.7942    2.5981    0.0000 C   0  0  0  0  0  0  0  0  0  0  0  0
    7.0442    3.8971    0.0000 C   0  0  0  0  0  0  0  0  0  0  0  0
    9.2942    2.5981    0.0000 C   0  0  0  0  0  0  0  0  0  0  0  0
   10.0442    3.8971    0.0000 C   0  0  0  0  0  0  0  0  0  0  0  0
   11.5442    3.8971    0.0000 C   0  0  0  0  0  0  0  0  0  0  0  0
   12.2942    5.1962    0.0000 C   0  0  0  0  0  0  0  0  0  0  0  0
   12.2942    2.5981    0.0000 C   0  0  0  0  0  0  0  0  0  0  0  0
   13.7942    2.5981    0.0000 C   0  0  0  0  0  0  0  0  0  0  0  0
   14.5442    1.2990    0.0000 C   0  0  0  0  0  0  0  0  0  0  0  0
  1  2  2  0
  2  3  2  0
  3  4  2  0
  4  5  1  0
  5  6  1  0
  5  7  2  3
  7  8  1  0
  8  9  1  0
  9 10  2  0
  9 11  1  0
 11 12  2  3
 12 13  1  0
  8 14  1  0
 14 15  1  0
 14 16  1  0
 16 17  2  0
 17 18  2  0
 14 19  1  0
 19 20  1  0
 20 21  2  0
 19 22  1  0
 22 23  1  0
 22 24  2  3
 24 25  1  0
 25 26  2  3
 26 27  1  0
 26 28  1  0
 28 29  2  3
 29 30  1  0
M  END
