
     RDKit          2D

 40 39  0  0  0  0  0  0  0  0999 V2000
    0.0000    0.0000    0.0000 C   0  0  0  0  0  0  0  0  0  0  0  0
    1.2990    0.7500    0.0000 C   0  0  0  0  0  0  0  0  0  0  0  0
    2.5981   -0.0000    0.0000 C   0  0  0  0  0  0  0  0  0  0  0  0
    3.8971    0.7500    0.0000 C   0  0  0  0  0  0  0  0  0  0  0  0
    5.1962   -0.0000    0.0000 C   0  0  0  0  0  0  0  0  0  0  0  0
    6.4952   -0.7500    0.0000 C   0  0  0  0  0  0  0  0  0  0  0  0
    4.4462   -1.2990    0.0000 C   0  0  0  0  0  0  0  0  0  0  0  0
    5.1962   -2.5981    0.0000 C   0  0  0  0  0  0  0  0  0  0  0  0
    5.9462   -3.8971    0.0000 C   0  0  0  0  0  0  0  0  0  0  0  0
    6.6962   -5.1962    0.0000 C   0  0  0  0  0  0  0  0  0  0  0  0
    5.9462   -6.4952    0.0000 C   0  0  0  0  0  0  0  0  0  0  0  0
    6.6962   -7.7942    0.0000 C   0  0  0  0  0  0  0  0  0  0  0  0
    5.9462   -9.0933    0.0000 C   0  0  0  0  0  0  0  0  0  0  0  0
    6.6962  -10.3923    0.0000 C   0  0  0  0  0  0  0  0  0  0  0  0
    8.1962  -10.3923    0.0000 C   0  0  0  0  0  0  0  0  0  0  0  0
    9.6962  -10.3923    0.0000 C   0  0  0  0  0  0  0  0  0  0  0  0
   11.1962  -10.3923    0.0000 C   0  0  0  0  0  0  0  0  0  0  0  0
   11.9462  -11.6913    0.0000 C   0  0  0  0  0  0  0  0  0  0  0  0
   13.4462  -11.6913    0.0000 C   0  0  0  0  0  0  0  0  0  0  0  0
   14.1962  -12.9904    0.0000 C   0  0  0  0  0  0  0  0  0  0  0  0
   15.6962  -12.9904    0.0000 C   0  0  0  0  0  0  0  0  0  0  0  0
   17.1962  -12.9904    0.0000 C   0  0  0  0  0  0  0  0  0  0  0  0
   17.9462  -11.6913    0.0000 C   0  0  0  0  0  0  0  0  0  0  0  0
   11.1962  -12.9904    0.0000 C   0  0  0  0  0  0  0  0  0  0  0  0
   11.9462  -14.2894    0.0000 C   0  0  0  0  0  0  0  0  0  0  0  0
    9.6962  -12.9904    0.0000 C   0  0  0  0  0  0  0  0  0  0  0  0
    8.9462  -14.2894    0.0000 C   0  0  0  0  0  0  0  0  0  0  0  0
    5.9462  -11.6913    0.0000 C   0  0  0  0  0  0  0  0  0  0  0  0
    6.6962  -12.9904    0.0000 C   0  0  0  0  0  0  0  0  0  0  0  0
    5.9462    1.2990    0.0000 C   0  0  0  0  0  0  0  0  0  0  0  0
    7.4462    1.2990    0.0000 C   0  0  0  0  0  0  0  0  0  0  0  0
    8.1962    2.5981    0.0000 C   0  0  0  0  0  0  0  0  0  0  0  0
    5.1962    2.5981    0.0000 C   0  0  0  0  0  0  0  0  0  0  0  0
    3.8971    1.8481    0.0000 C   0  0  0  0  0  0  0  0  0  0  0  0
    2.5981    2.5981    0.0000 C   0  0  0  0  0  0  0  0  0  0  0  0
    6.4952    3.3481    0.0000 C   0  0  0  0  0  0  0  0  0  0  0  0
    6.4952    4.8481    0.0000 C   0  0  0  0  0  0  0  0  0  0  0  0
    4.4462    3.8971    0.0000 C   0  0  0  0  0  0  0  0  0  0  0  0
    5.1962    5.1962    0.0000 C   0  0  0  0  0  0  0  0  0  0  0  0
    2.9462    3.8971    0.0000 C   0  0  0  0  0  0  0  0  0  0  0  0
  1  2  2  0
  2  3  1  0
  3  4  2  3
  4  5  1  0
  5  6  1  0
  5  7  1  0
  7  8  2  0
  8  9  2  0
  9 10  2  0
 10 11  1  0
 11 12  1  0
 12 13  1  0
 13 14  1  0
 14 15  2  0
 15 16  2  0
 16 17  2  0
 17 18  1  0
 18 19  2  3
 19 20  1  0
 20 21  2  0
 21 22  2  0
 22 23  1  0
 18 24  1  0
 24 25  2  0
 24 26  1  0
 26 27  2  0
 14 28  1  0
 28 29  1  0
  5 30  1  0
 30 31  2  3
 31 32  1  0
 30 33  1  0
 33 34  1  0
 34 35  2  0
 33 36  1  0
 36 37  1  0
 33 38  1  0
 38 39  2  0
 38 40  1  0
M  END
