
     RDKit          2D

 40 39  0  0  0  0  0  0  0  0999 V2000
    0.0000    0.0000    0.0000 C   0  0  0  0  0  0  0  0  0  0  0  0
    1.2990    0.7500    0.0000 C   0  0  0  0  0  0  0  0  0  0  0  0
    2.5981    1.5000    0.0000 C   0  0  0  0  0  0  0  0  0  0  0  0
    2.5981    3.0000    0.0000 C   0  0  0  0  0  0  0  0  0  0  0  0
    1.0981    3.0000    0.0000 C   0  0  0  0  0  0  0  0  0  0  0  0
    0.3481    4.2990    0.0000 C   0  0  0  0  0  0  0  0  0  0  0  0
   -1.1519    4.2990    0.0000 C   0  0  0  0  0  0  0  0  0  0  0  0
   -1.9019    3.0000    0.0000 C   0  0  0  0  0  0  0  0  0  0  0  0
   -1.9019    5.5981    0.0000 C   0  0  0  0  0  0  0  0  0  0  0  0
   -3.4019    5.5981    0.0000 C   0  0  0  0  0  0  0  0  0  0  0  0
    2.5981    4.5000    0.0000 C   0  0  0  0  0  0  0  0  0  0  0  0
    3.8971    5.2500    0.0000 C   0  0  0  0  0  0  0  0  0  0  0  0
    3.8971    6.7500    0.0000 C   0  0  0  0  0  0  0  0  0  0  0  0
    3.8971    8.2500    0.0000 C   0  0  0  0  0  0  0  0  0  0  0  0
    2.5981    9.0000    0.0000 C   0  0  0  0  0  0  0  0  0  0  0  0
    2.5981   10.5000    0.0000 C   0  0  0  0  0  0  0  0  0  0  0  0
    1.2990    5.2500    0.0000 C   0  0  0  0  0  0  0  0  0  0  0  0
    1.2990    6.7500    0.0000 C   0  0  0  0  0  0  0  0  0  0  0  0
    4.0981    3.0000    0.0000 C   0  0  0  0  0  0  0  0  0  0  0  0
    4.8481    4.2990    0.0000 C   0  0  0  0  0  0  0  0  0  0  0  0
    4.8481    1.7010    0.0000 C   0  0  0  0  0  0  0  0  0  0  0  0
    6.3481    1.7010    0.0000 C   0  0  0  0  0  0  0  0  0  0  0  0
    7.8481    1.7010    0.0000 C   0  0  0  0  0  0  0  0  0  0  0  0
    8.5981    3.0000    0.0000 C   0  0  0  0  0  0  0  0  0  0  0  0
   10.0981    3.0000    0.0000 C   0  0  0  0  0  0  0  0  0  0  0  0
   10.8481    4.2990    0.0000 C   0  0  0  0  0  0  0  0  0  0  0  0
   12.3481    4.2990    0.0000 C   0  0  0  0  0  0  0  0  0  0  0  0
   10.8481    1.7010    0.0000 C   0  0  0  0  0  0  0  0  0  0  0  0
   12.3481    1.7010    0.0000 C   0  0  0  0  0  0  0  0  0  0  0  0
   10.0981    0.4019    0.0000 C   0  0  0  0  0  0  0  0  0  0  0  0
   10.8481   -0.8971    0.0000 C   0  0  0  0  0  0  0  0  0  0  0  0
   11.5981   -2.1962    0.0000 C   0  0  0  0  0  0  0  0  0  0  0  0
   13.0981   -2.1962    0.0000 C   0  0  0  0  0  0  0  0  0  0  0  0
   10.8481   -3.4952    0.0000 C   0  0  0  0  0  0  0  0  0  0  0  0
    9.3481   -3.4952    0.0000 C   0  0  0  0  0  0  0  0  0  0  0  0
    8.5981   -4.7942    0.0000 C   0  0  0  0  0  0  0  0  0  0  0  0
   11.5981   -4.7942    0.0000 C   0  0  0  0  0  0  0  0  0  0  0  0
   10.8481   -6.0933    0.0000 C   0  0  0  0  0  0  0  0  0  0  0  0
   13.0981   -4.7942    0.0000 C   0  0  0  0  0  0  0  0  0  0  0  0
   14.5981   -4.7942    0.0000 C   0  0  0  0  0  0  0  0  0  0  0  0
  1  2  2  0
  2  3  2  0
  3  4  1  0
  4  5  1  0
  5  6  1  0
  6  7  1  0
  7  8  2  0
  7  9  1  0
  9 10  1  0
  4 11  1  0
 11 12  1  0
 12 13  2  0
 13 14  2  0
 14 15  1  0
 15 16  2  0
 11 17  2  3
 17 18  1  0
  4 19  1  0
 19 20  1  0
 19 21  1  0
 21 22  2  0
 22 23  2  0
 23 24  1  0
 24 25  1  0
 25 26  1  0
 26 27  2  0
 25 28  2  3
 28 29  1  0
 28 30  1  0
 30 31  2  0
 31 32  2  0
 32 33  1  0
 32 34  1  0
 34 35  2  3
 35 36  1  0
 34 37  1  0
 37 38  1  0
 37 39  2  0
 39 40  2  0
M  END
