
     RDKit          2D

 38 37  0  0  0  0  0  0  0  0999 V2000
   10.3923   -0.0000    0.0000 C   0  0  0  0  0  0  0  0  0  0  0  0
    9.0933    0.7500    0.0000 C   0  0  0  0  0  0  0  0  0  0  0  0
    7.7942    1.5000    0.0000 C   0  0  0  0  0  0  0  0  0  0  0  0
    6.4952    2.2500    0.0000 C   0  0  0  0  0  0  0  0  0  0  0  0
    5.1962    1.5000    0.0000 C   0  0  0  0  0  0  0  0  0  0  0  0
    3.8971    2.2500    0.0000 C   0  0  0  0  0  0  0  0  0  0  0  0
    5.1962   -0.0000    0.0000 C   0  0  0  0  0  0  0  0  0  0  0  0
    6.4952   -0.7500    0.0000 C   0  0  0  0  0  0  0  0  0  0  0  0
    3.8971   -0.7500    0.0000 C   0  0  0  0  0  0  0  0  0  0  0  0
    3.8971   -2.2500    0.0000 C   0  0  0  0  0  0  0  0  0  0  0  0
    2.5981   -3.0000    0.0000 C   0  0  0  0  0  0  0  0  0  0  0  0
    2.5981   -4.5000    0.0000 C   0  0  0  0  0  0  0  0  0  0  0  0
    2.5981   -6.0000    0.0000 C   0  0  0  0  0  0  0  0  0  0  0  0
    1.2990   -6.7500    0.0000 C   0  0  0  0  0  0  0  0  0  0  0  0
    1.0981   -4.5000    0.0000 C   0  0  0  0  0  0  0  0  0  0  0  0
    0.3481   -5.7990    0.0000 C   0  0  0  0  0  0  0  0  0  0  0  0
   -0.4019   -7.0981    0.0000 C   0  0  0  0  0  0  0  0  0  0  0  0
   -1.1519   -8.3971    0.0000 C   0  0  0  0  0  0  0  0  0  0  0  0
   -2.6519   -8.3971    0.0000 C   0  0  0  0  0  0  0  0  0  0  0  0
   -0.4019   -9.6962    0.0000 C   0  0  0  0  0  0  0  0  0  0  0  0
   -1.1519  -10.9952    0.0000 C   0  0  0  0  0  0  0  0  0  0  0  0
   -2.6519  -10.9952    0.0000 C   0  0  0  0  0  0  0  0  0  0  0  0
   -3.4019  -12.2942    0.0000 C   0  0  0  0  0  0  0  0  0  0  0  0
   -4.9019  -12.2942    0.0000 C   0  0  0  0  0  0  0  0  0  0  0  0
   -2.6519  -13.5933    0.0000 C   0  0  0  0  0  0  0  0  0  0  0  0
   -3.4019  -14.8923    0.0000 C   0  0  0  0  0  0  0  0  0  0  0  0
   -0.4019  -12.2942    0.0000 C   0  0  0  0  0  0  0  0  0  0  0  0
   -1.1519  -13.5933    0.0000 C   0  0  0  0  0  0  0  0  0  0  0  0
   -0.4019  -14.8923    0.0000 C   0  0  0  0  0  0  0  0  0  0  0  0
    4.0981   -4.5000    0.0000 C   0  0  0  0  0  0  0  0  0  0  0  0
    4.8481   -3.2010    0.0000 C   0  0  0  0  0  0  0  0  0  0  0  0
    4.8481   -5.7990    0.0000 C   0  0  0  0  0  0  0  0  0  0  0  0
    4.0981   -7.0981    0.0000 C   0  0  0  0  0  0  0  0  0  0  0  0
    6.3481   -5.7990    0.0000 C   0  0  0  0  0  0  0  0  0  0  0  0
    2.5981   -0.0000    0.0000 C   0  0  0  0  0  0  0  0  0  0  0  0
    2.5981    1.5000    0.0000 C   0  0  0  0  0  0  0  0  0  0  0  0
    1.2990   -0.7500    0.0000 C   0  0  0  0  0  0  0  0  0  0  0  0
    0.0000   -1.5000    0.0000 C   0  0  0  0  0  0  0  0  0  0  0  0
  1  2  2  0
  2  3  2  0
  3  4  2  0
  4  5  1  0
  5  6  1  0
  5  7  2  3
  7  8  1  0
  7  9  1  0
  9 10  2  3
 10 11  1  0
 11 12  1  0
 12 13  1  0
 13 14  2  0
 12 15  1  0
 15 16  2  0
 16 17  2  0
 17 18  2  0
 18 19  1  0
 18 20  1  0
 20 21  2  3
 21 22  1  0
 22 23  2  3
 23 24  1  0
 23 25  1  0
 25 26  1  0
 21 27  1  0
 27 28  1  0
 28 29  1  0
 12 30  1  0
 30 31  2  0
 30 32  1  0
 32 33  2  0
 32 34  1  0
  9 35  1  0
 35 36  1  0
 35 37  2  0
 37 38  2  0
M  END
