
     RDKit          2D

 35 34  0  0  0  0  0  0  0  0999 V2000
    0.0000   -0.0000    0.0000 C   0  0  0  0  0  0  0  0  0  0  0  0
    1.2990    0.7500    0.0000 C   0  0  0  0  0  0  0  0  0  0  0  0
    2.5981   -0.0000    0.0000 C   0  0  0  0  0  0  0  0  0  0  0  0
    3.8971    0.7500    0.0000 C   0  0  0  0  0  0  0  0  0  0  0  0
    5.1962   -0.0000    0.0000 C   0  0  0  0  0  0  0  0  0  0  0  0
    6.4952    0.7500    0.0000 C   0  0  0  0  0  0  0  0  0  0  0  0
    7.7942   -0.0000    0.0000 C   0  0  0  0  0  0  0  0  0  0  0  0
    7.7942   -1.5000    0.0000 C   0  0  0  0  0  0  0  0  0  0  0  0
    9.0933   -2.2500    0.0000 C   0  0  0  0  0  0  0  0  0  0  0  0
    9.0933   -3.7500    0.0000 C   0  0  0  0  0  0  0  0  0  0  0  0
    6.4952    2.2500    0.0000 C   0  0  0  0  0  0  0  0  0  0  0  0
    7.7942    3.0000    0.0000 C   0  0  0  0  0  0  0  0  0  0  0  0
    9.0933    2.2500    0.0000 C   0  0  0  0  0  0  0  0  0  0  0  0
   10.3923    3.0000    0.0000 C   0  0  0  0  0  0  0  0  0  0  0  0
    9.0933    0.7500    0.0000 C   0  0  0  0  0  0  0  0  0  0  0  0
    9.0933   -0.7500    0.0000 C   0  0  0  0  0  0  0  0  0  0  0  0
   10.3923   -1.5000    0.0000 C   0  0  0  0  0  0  0  0  0  0  0  0
    7.7942    4.5000    0.0000 C   0  0  0  0  0  0  0  0  0  0  0  0
    6.2942    4.5000    0.0000 C   0  0  0  0  0  0  0  0  0  0  0  0
    5.5442    5.7990    0.0000 C   0  0  0  0  0  0  0  0  0  0  0  0
    6.0189    6.9175    0.0000 C   0  0  0  0  0  0  0  0  0  0  0  0
    4.0442    5.7990    0.0000 C   0  0  0  0  0  0  0  0  0  0  0  0
    3.2942    7.0981    0.0000 C   0  0  0  0  0  0  0  0  0  0  0  0
    9.2942    4.5000    0.0000 C   0  0  0  0  0  0  0  0  0  0  0  0
   10.0442    5.7990    0.0000 C   0  0  0  0  0  0  0  0  0  0  0  0
   11.5442    5.7990    0.0000 C   0  0  0  0  0  0  0  0  0  0  0  0
   13.0442    5.7990    0.0000 C   0  0  0  0  0  0  0  0  0  0  0  0
   14.5442    5.7990    0.0000 C   0  0  0  0  0  0  0  0  0  0  0  0
   15.2942    7.0981    0.0000 C   0  0  0  0  0  0  0  0  0  0  0  0
   16.7942    7.0981    0.0000 C   0  0  0  0  0  0  0  0  0  0  0  0
   14.5442    8.3971    0.0000 C   0  0  0  0  0  0  0  0  0  0  0  0
   15.2942    9.6962    0.0000 C   0  0  0  0  0  0  0  0  0  0  0  0
    7.7942    6.0000    0.0000 C   0  0  0  0  0  0  0  0  0  0  0  0
    6.8239    6.7312    0.0000 C   0  0  0  0  0  0  0  0  0  0  0  0
    9.0933    6.7500    0.0000 C   0  0  0  0  0  0  0  0  0  0  0  0
  1  2  2  0
  2  3  1  0
  3  4  2  3
  4  5  1  0
  5  6  1  0
  6  7  2  3
  7  8  1  0
  8  9  2  3
  9 10  1  0
  6 11  1  0
 11 12  2  3
 12 13  1  0
 13 14  1  0
 13 15  2  0
 15 16  2  0
 16 17  1  0
 12 18  1  0
 18 19  1  0
 19 20  2  3
 20 21  1  0
 20 22  1  0
 22 23  1  0
 18 24  1  0
 24 25  1  0
 25 26  2  0
 26 27  2  0
 27 28  2  0
 28 29  1  0
 29 30  2  0
 29 31  1  0
 31 32  2  0
 18 33  1  0
 33 34  2  0
 33 35  1  0
M  END
