
     RDKit          2D

 38 37  0  0  0  0  0  0  0  0999 V2000
    6.4952   -3.7500    0.0000 C   0  0  0  0  0  0  0  0  0  0  0  0
    6.4952   -2.2500    0.0000 C   0  0  0  0  0  0  0  0  0  0  0  0
    6.4952   -0.7500    0.0000 C   0  0  0  0  0  0  0  0  0  0  0  0
    6.4952    0.7500    0.0000 C   0  0  0  0  0  0  0  0  0  0  0  0
    5.1962    1.5000    0.0000 C   0  0  0  0  0  0  0  0  0  0  0  0
    3.8971    2.2500    0.0000 C   0  0  0  0  0  0  0  0  0  0  0  0
    2.5981    1.5000    0.0000 C   0  0  0  0  0  0  0  0  0  0  0  0
    3.8971    3.7500    0.0000 C   0  0  0  0  0  0  0  0  0  0  0  0
    2.5981    4.5000    0.0000 C   0  0  0  0  0  0  0  0  0  0  0  0
    4.4462    0.2010    0.0000 C   0  0  0  0  0  0  0  0  0  0  0  0
    2.9462    0.2010    0.0000 C   0  0  0  0  0  0  0  0  0  0  0  0
    1.4462    0.2010    0.0000 C   0  0  0  0  0  0  0  0  0  0  0  0
    5.1962   -1.0981    0.0000 C   0  0  0  0  0  0  0  0  0  0  0  0
    4.4462   -2.3971    0.0000 C   0  0  0  0  0  0  0  0  0  0  0  0
    3.6962   -3.6962    0.0000 C   0  0  0  0  0  0  0  0  0  0  0  0
    5.9462    2.7990    0.0000 C   0  0  0  0  0  0  0  0  0  0  0  0
    5.1962    4.0981    0.0000 C   0  0  0  0  0  0  0  0  0  0  0  0
    5.9462    5.3971    0.0000 C   0  0  0  0  0  0  0  0  0  0  0  0
    5.1962    6.6962    0.0000 C   0  0  0  0  0  0  0  0  0  0  0  0
    7.4462    5.3971    0.0000 C   0  0  0  0  0  0  0  0  0  0  0  0
    8.1962    6.6962    0.0000 C   0  0  0  0  0  0  0  0  0  0  0  0
    9.6962    6.6962    0.0000 C   0  0  0  0  0  0  0  0  0  0  0  0
   10.4462    7.9952    0.0000 C   0  0  0  0  0  0  0  0  0  0  0  0
   10.4462    5.3971    0.0000 C   0  0  0  0  0  0  0  0  0  0  0  0
    7.4462    2.7990    0.0000 C   0  0  0  0  0  0  0  0  0  0  0  0
    8.1962    4.0981    0.0000 C   0  0  0  0  0  0  0  0  0  0  0  0
    8.1962    1.5000    0.0000 C   0  0  0  0  0  0  0  0  0  0  0  0
    7.4462    0.2010    0.0000 C   0  0  0  0  0  0  0  0  0  0  0  0
    5.9462    0.2010    0.0000 C   0  0  0  0  0  0  0  0  0  0  0  0
    8.1962   -1.0981    0.0000 C   0  0  0  0  0  0  0  0  0  0  0  0
    8.9462   -2.3971    0.0000 C   0  0  0  0  0  0  0  0  0  0  0  0
    9.6962    1.5000    0.0000 C   0  0  0  0  0  0  0  0  0  0  0  0
   10.4462    0.2010    0.0000 C   0  0  0  0  0  0  0  0  0  0  0  0
   10.4462    2.7990    0.0000 C   0  0  0  0  0  0  0  0  0  0  0  0
   11.9462    2.7990    0.0000 C   0  0  0  0  0  0  0  0  0  0  0  0
   12.6962    4.0981    0.0000 C   0  0  0  0  0  0  0  0  0  0  0  0
   14.1962    4.0981    0.0000 C   0  0  0  0  0  0  0  0  0  0  0  0
   14.9462    5.3971    0.0000 C   0  0  0  0  0  0  0  0  0  0  0  0
  1  2  2  0
  2  3  2  0
  3  4  2  0
  4  5  1  0
  5  6  1  0
  6  7  2  0
  6  8  1  0
  8  9  2  0
  5 10  1  0
 10 11  2  0
 11 12  2  0
 10 13  1  0
 13 14  2  0
 14 15  2  0
  5 16  1  0
 16 17  2  3
 17 18  1  0
 18 19  1  0
 18 20  2  3
 20 21  1  0
 21 22  2  0
 22 23  1  0
 22 24  1  0
 16 25  1  0
 25 26  1  0
 25 27  1  0
 27 28  1  0
 28 29  1  0
 28 30  2  0
 30 31  2  0
 27 32  2  3
 32 33  1  0
 32 34  1  0
 34 35  1  0
 35 36  1  0
 36 37  1  0
 37 38  1  0
M  END
