
     RDKit          2D

 35 34  0  0  0  0  0  0  0  0999 V2000
   -6.4952    2.2500    0.0000 C   0  0  0  0  0  0  0  0  0  0  0  0
   -7.7942    1.5000    0.0000 C   0  0  0  0  0  0  0  0  0  0  0  0
   -9.0933    0.7500    0.0000 C   0  0  0  0  0  0  0  0  0  0  0  0
   -9.0933   -0.7500    0.0000 C   0  0  0  0  0  0  0  0  0  0  0  0
  -10.3923   -1.5000    0.0000 C   0  0  0  0  0  0  0  0  0  0  0  0
   -7.7942   -1.5000    0.0000 C   0  0  0  0  0  0  0  0  0  0  0  0
   -7.7942   -3.0000    0.0000 C   0  0  0  0  0  0  0  0  0  0  0  0
   -6.4952   -0.7500    0.0000 C   0  0  0  0  0  0  0  0  0  0  0  0
   -5.1962    0.0000    0.0000 C   0  0  0  0  0  0  0  0  0  0  0  0
   -3.8971   -0.7500    0.0000 C   0  0  0  0  0  0  0  0  0  0  0  0
   -2.5981   -0.0000    0.0000 C   0  0  0  0  0  0  0  0  0  0  0  0
   -1.2990    0.7500    0.0000 C   0  0  0  0  0  0  0  0  0  0  0  0
   -3.3481    1.2990    0.0000 C   0  0  0  0  0  0  0  0  0  0  0  0
   -2.5981    2.5981    0.0000 C   0  0  0  0  0  0  0  0  0  0  0  0
   -3.3481    3.8971    0.0000 C   0  0  0  0  0  0  0  0  0  0  0  0
   -1.8481   -1.2990    0.0000 C   0  0  0  0  0  0  0  0  0  0  0  0
   -0.3481   -1.2990    0.0000 C   0  0  0  0  0  0  0  0  0  0  0  0
    0.4019   -2.5981    0.0000 C   0  0  0  0  0  0  0  0  0  0  0  0
    1.1519   -3.8971    0.0000 C   0  0  0  0  0  0  0  0  0  0  0  0
    0.4019   -5.1962    0.0000 C   0  0  0  0  0  0  0  0  0  0  0  0
    2.6519   -3.8971    0.0000 C   0  0  0  0  0  0  0  0  0  0  0  0
    3.4019   -2.5981    0.0000 C   0  0  0  0  0  0  0  0  0  0  0  0
    3.4019   -5.1962    0.0000 C   0  0  0  0  0  0  0  0  0  0  0  0
    4.9019   -5.1962    0.0000 C   0  0  0  0  0  0  0  0  0  0  0  0
    2.6519   -6.4952    0.0000 C   0  0  0  0  0  0  0  0  0  0  0  0
    1.9019   -7.7942    0.0000 C   0  0  0  0  0  0  0  0  0  0  0  0
    1.1519   -9.0933    0.0000 C   0  0  0  0  0  0  0  0  0  0  0  0
    1.9019  -10.3923    0.0000 C   0  0  0  0  0  0  0  0  0  0  0  0
    1.1519  -11.6913    0.0000 C   0  0  0  0  0  0  0  0  0  0  0  0
    0.4019    0.0000    0.0000 C   0  0  0  0  0  0  0  0  0  0  0  0
   -0.3481    1.2990    0.0000 C   0  0  0  0  0  0  0  0  0  0  0  0
    1.9019    0.0000    0.0000 C   0  0  0  0  0  0  0  0  0  0  0  0
   -2.5981   -2.5981    0.0000 C   0  0  0  0  0  0  0  0  0  0  0  0
   -1.8481   -3.8971    0.0000 C   0  0  0  0  0  0  0  0  0  0  0  0
   -4.0981   -2.5981    0.0000 C   0  0  0  0  0  0  0  0  0  0  0  0
  1  2  2  0
  2  3  2  0
  3  4  1  0
  4  5  1  0
  4  6  1  0
  6  7  1  0
  6  8  2  0
  8  9  2  0
  9 10  1  0
 10 11  1  0
 11 12  1  0
 11 13  1  0
 13 14  2  3
 14 15  1  0
 11 16  1  0
 16 17  1  0
 17 18  2  0
 18 19  2  0
 19 20  1  0
 19 21  1  0
 21 22  2  0
 21 23  1  0
 23 24  1  0
 23 25  2  0
 25 26  2  0
 26 27  2  0
 27 28  1  0
 28 29  2  0
 17 30  1  0
 30 31  2  0
 30 32  1  0
 16 33  2  0
 33 34  1  0
 33 35  1  0
M  END
