
     RDKit          2D

 40 39  0  0  0  0  0  0  0  0999 V2000
    0.0000    0.0000    0.0000 C   0  0  0  0  0  0  0  0  0  0  0  0
    1.2990    0.7500    0.0000 C   0  0  0  0  0  0  0  0  0  0  0  0
    2.5981    1.5000    0.0000 C   0  0  0  0  0  0  0  0  0  0  0  0
    3.8971    2.2500    0.0000 C   0  0  0  0  0  0  0  0  0  0  0  0
    5.1962    3.0000    0.0000 C   0  0  0  0  0  0  0  0  0  0  0  0
    6.4952    3.7500    0.0000 C   0  0  0  0  0  0  0  0  0  0  0  0
    7.7942    3.0000    0.0000 C   0  0  0  0  0  0  0  0  0  0  0  0
    9.0933    3.7500    0.0000 C   0  0  0  0  0  0  0  0  0  0  0  0
   10.3923    3.0000    0.0000 C   0  0  0  0  0  0  0  0  0  0  0  0
    9.0933    5.2500    0.0000 C   0  0  0  0  0  0  0  0  0  0  0  0
    6.4952    5.2500    0.0000 C   0  0  0  0  0  0  0  0  0  0  0  0
    7.9952    5.2500    0.0000 C   0  0  0  0  0  0  0  0  0  0  0  0
    4.9952    5.2500    0.0000 C   0  0  0  0  0  0  0  0  0  0  0  0
    4.2452    6.5490    0.0000 C   0  0  0  0  0  0  0  0  0  0  0  0
    2.7452    6.5490    0.0000 C   0  0  0  0  0  0  0  0  0  0  0  0
    1.9952    7.8481    0.0000 C   0  0  0  0  0  0  0  0  0  0  0  0
    1.9952    5.2500    0.0000 C   0  0  0  0  0  0  0  0  0  0  0  0
    0.4952    5.2500    0.0000 C   0  0  0  0  0  0  0  0  0  0  0  0
   -0.2548    3.9510    0.0000 C   0  0  0  0  0  0  0  0  0  0  0  0
   -1.7548    3.9510    0.0000 C   0  0  0  0  0  0  0  0  0  0  0  0
   -2.5048    5.2500    0.0000 C   0  0  0  0  0  0  0  0  0  0  0  0
   -4.0048    5.2500    0.0000 C   0  0  0  0  0  0  0  0  0  0  0  0
   -4.7548    6.5490    0.0000 C   0  0  0  0  0  0  0  0  0  0  0  0
   -6.2548    6.5490    0.0000 C   0  0  0  0  0  0  0  0  0  0  0  0
   -7.0048    7.8481    0.0000 C   0  0  0  0  0  0  0  0  0  0  0  0
   -2.5048    2.6519    0.0000 C   0  0  0  0  0  0  0  0  0  0  0  0
   -1.7548    1.3529    0.0000 C   0  0  0  0  0  0  0  0  0  0  0  0
   -4.0048    2.6519    0.0000 C   0  0  0  0  0  0  0  0  0  0  0  0
   -4.7548    3.9510    0.0000 C   0  0  0  0  0  0  0  0  0  0  0  0
   -5.5048    5.2500    0.0000 C   0  0  0  0  0  0  0  0  0  0  0  0
   -4.7548    1.3529    0.0000 C   0  0  0  0  0  0  0  0  0  0  0  0
   -6.2548    1.3529    0.0000 C   0  0  0  0  0  0  0  0  0  0  0  0
   -7.0048    0.0538    0.0000 C   0  0  0  0  0  0  0  0  0  0  0  0
   -4.0048    0.0538    0.0000 C   0  0  0  0  0  0  0  0  0  0  0  0
   -4.7548   -1.2452    0.0000 C   0  0  0  0  0  0  0  0  0  0  0  0
    6.4952    6.7500    0.0000 C   0  0  0  0  0  0  0  0  0  0  0  0
    7.7942    7.5000    0.0000 C   0  0  0  0  0  0  0  0  0  0  0  0
    9.0933    8.2500    0.0000 C   0  0  0  0  0  0  0  0  0  0  0  0
    5.1962    7.5000    0.0000 C   0  0  0  0  0  0  0  0  0  0  0  0
    5.1962    9.0000    0.0000 C   0  0  0  0  0  0  0  0  0  0  0  0
  1  2  2  0
  2  3  2  0
  3  4  2  0
  4  5  2  0
  5  6  2  0
  6  7  1  0
  7  8  1  0
  8  9  1  0
  8 10  1  0
  6 11  1  0
 11 12  1  0
 11 13  1  0
 13 14  1  0
 14 15  2  3
 15 16  1  0
 15 17  1  0
 17 18  2  3
 18 19  1  0
 19 20  1  0
 20 21  2  3
 21 22  1  0
 22 23  2  3
 23 24  1  0
 24 25  2  0
 20 26  1  0
 26 27  1  0
 26 28  1  0
 28 29  2  0
 29 30  2  0
 28 31  1  0
 31 32  1  0
 32 33  2  0
 31 34  2  3
 34 35  1  0
 11 36  1  0
 36 37  2  0
 37 38  2  0
 36 39  1  0
 39 40  1  0
M  END
