
     RDKit          2D

 40 39  0  0  0  0  0  0  0  0999 V2000
    9.0933    2.2500    0.0000 C   0  0  0  0  0  0  0  0  0  0  0  0
    7.7942    3.0000    0.0000 C   0  0  0  0  0  0  0  0  0  0  0  0
    6.4952    3.7500    0.0000 C   0  0  0  0  0  0  0  0  0  0  0  0
    5.1962    3.0000    0.0000 C   0  0  0  0  0  0  0  0  0  0  0  0
    5.1962    1.5000    0.0000 C   0  0  0  0  0  0  0  0  0  0  0  0
    3.8971    0.7500    0.0000 C   0  0  0  0  0  0  0  0  0  0  0  0
    2.5981    1.5000    0.0000 C   0  0  0  0  0  0  0  0  0  0  0  0
    1.2990    0.7500    0.0000 C   0  0  0  0  0  0  0  0  0  0  0  0
    3.8971   -0.7500    0.0000 C   0  0  0  0  0  0  0  0  0  0  0  0
    2.5981   -1.5000    0.0000 C   0  0  0  0  0  0  0  0  0  0  0  0
    3.8971    3.7500    0.0000 C   0  0  0  0  0  0  0  0  0  0  0  0
    3.8971    5.2500    0.0000 C   0  0  0  0  0  0  0  0  0  0  0  0
    5.1962    6.0000    0.0000 C   0  0  0  0  0  0  0  0  0  0  0  0
    2.5981    6.0000    0.0000 C   0  0  0  0  0  0  0  0  0  0  0  0
    2.5981    7.5000    0.0000 C   0  0  0  0  0  0  0  0  0  0  0  0
    1.2990    8.2500    0.0000 C   0  0  0  0  0  0  0  0  0  0  0  0
    0.0000    9.0000    0.0000 C   0  0  0  0  0  0  0  0  0  0  0  0
    0.5490    6.9510    0.0000 C   0  0  0  0  0  0  0  0  0  0  0  0
   -0.9510    6.9510    0.0000 C   0  0  0  0  0  0  0  0  0  0  0  0
   -1.7010    5.6519    0.0000 C   0  0  0  0  0  0  0  0  0  0  0  0
    2.0490    9.5490    0.0000 C   0  0  0  0  0  0  0  0  0  0  0  0
    3.5490    9.5490    0.0000 C   0  0  0  0  0  0  0  0  0  0  0  0
    5.0490    9.5490    0.0000 C   0  0  0  0  0  0  0  0  0  0  0  0
    6.5490    9.5490    0.0000 C   0  0  0  0  0  0  0  0  0  0  0  0
    8.0490    9.5490    0.0000 C   0  0  0  0  0  0  0  0  0  0  0  0
    8.7990    8.2500    0.0000 C   0  0  0  0  0  0  0  0  0  0  0  0
    1.2990   10.8481    0.0000 C   0  0  0  0  0  0  0  0  0  0  0  0
   -0.2010   10.8481    0.0000 C   0  0  0  0  0  0  0  0  0  0  0  0
   -0.9510   12.1471    0.0000 C   0  0  0  0  0  0  0  0  0  0  0  0
   -1.7010   13.4462    0.0000 C   0  0  0  0  0  0  0  0  0  0  0  0
    2.0490   12.1471    0.0000 C   0  0  0  0  0  0  0  0  0  0  0  0
    1.2990   13.4462    0.0000 C   0  0  0  0  0  0  0  0  0  0  0  0
    2.0490   14.7452    0.0000 C   0  0  0  0  0  0  0  0  0  0  0  0
    1.2990   16.0442    0.0000 C   0  0  0  0  0  0  0  0  0  0  0  0
    1.2990    5.2500    0.0000 C   0  0  0  0  0  0  0  0  0  0  0  0
    0.0000    6.0000    0.0000 C   0  0  0  0  0  0  0  0  0  0  0  0
    1.2990    3.7500    0.0000 C   0  0  0  0  0  0  0  0  0  0  0  0
    0.0000    3.0000    0.0000 C   0  0  0  0  0  0  0  0  0  0  0  0
    2.5981    3.0000    0.0000 C   0  0  0  0  0  0  0  0  0  0  0  0
    3.8971    2.2500    0.0000 C   0  0  0  0  0  0  0  0  0  0  0  0
  1  2  2  0
  2  3  2  0
  3  4  1  0
  4  5  2  3
  5  6  1  0
  6  7  2  3
  7  8  1  0
  6  9  1  0
  9 10  1  0
  4 11  1  0
 11 12  1  0
 12 13  1  0
 12 14  1  0
 14 15  1  0
 15 16  1  0
 16 17  1  0
 16 18  1  0
 18 19  2  3
 19 20  1  0
 16 21  1  0
 21 22  2  0
 22 23  2  0
 23 24  2  0
 24 25  2  0
 25 26  1  0
 21 27  1  0
 27 28  1  0
 28 29  2  0
 29 30  2  0
 27 31  2  3
 31 32  1  0
 32 33  2  3
 33 34  1  0
 14 35  2  3
 35 36  1  0
 35 37  1  0
 37 38  1  0
 37 39  2  0
 39 40  2  0
M  END
