
     RDKit          2D

 40 39  0  0  0  0  0  0  0  0999 V2000
    0.0000    0.0000    0.0000 C   0  0  0  0  0  0  0  0  0  0  0  0
    1.2990    0.7500    0.0000 C   0  0  0  0  0  0  0  0  0  0  0  0
    2.5981    0.0000    0.0000 C   0  0  0  0  0  0  0  0  0  0  0  0
    3.8971    0.7500    0.0000 C   0  0  0  0  0  0  0  0  0  0  0  0
    5.1962    1.5000    0.0000 C   0  0  0  0  0  0  0  0  0  0  0  0
    5.1962    3.0000    0.0000 C   0  0  0  0  0  0  0  0  0  0  0  0
    6.4952    3.7500    0.0000 C   0  0  0  0  0  0  0  0  0  0  0  0
    7.7942    4.5000    0.0000 C   0  0  0  0  0  0  0  0  0  0  0  0
    9.0933    5.2500    0.0000 C   0  0  0  0  0  0  0  0  0  0  0  0
    9.0933    6.7500    0.0000 C   0  0  0  0  0  0  0  0  0  0  0  0
   10.3923    7.5000    0.0000 C   0  0  0  0  0  0  0  0  0  0  0  0
   11.6913    8.2500    0.0000 C   0  0  0  0  0  0  0  0  0  0  0  0
   12.9904    7.5000    0.0000 C   0  0  0  0  0  0  0  0  0  0  0  0
   14.2894    8.2500    0.0000 C   0  0  0  0  0  0  0  0  0  0  0  0
   15.5885    7.5000    0.0000 C   0  0  0  0  0  0  0  0  0  0  0  0
   15.5885    6.0000    0.0000 C   0  0  0  0  0  0  0  0  0  0  0  0
   16.8875    5.2500    0.0000 C   0  0  0  0  0  0  0  0  0  0  0  0
   16.8875    3.7500    0.0000 C   0  0  0  0  0  0  0  0  0  0  0  0
   16.8875    8.2500    0.0000 C   0  0  0  0  0  0  0  0  0  0  0  0
   18.1865    7.5000    0.0000 C   0  0  0  0  0  0  0  0  0  0  0  0
   19.4856    8.2500    0.0000 C   0  0  0  0  0  0  0  0  0  0  0  0
   20.7846    7.5000    0.0000 C   0  0  0  0  0  0  0  0  0  0  0  0
   22.0836    6.7500    0.0000 C   0  0  0  0  0  0  0  0  0  0  0  0
   20.0346    6.2010    0.0000 C   0  0  0  0  0  0  0  0  0  0  0  0
   18.5346    6.2010    0.0000 C   0  0  0  0  0  0  0  0  0  0  0  0
   17.0346    6.2010    0.0000 C   0  0  0  0  0  0  0  0  0  0  0  0
   16.1906    7.0749    0.0000 C   0  0  0  0  0  0  0  0  0  0  0  0
   20.7846    4.9019    0.0000 C   0  0  0  0  0  0  0  0  0  0  0  0
   22.2846    4.9019    0.0000 C   0  0  0  0  0  0  0  0  0  0  0  0
   20.0346    3.6029    0.0000 C   0  0  0  0  0  0  0  0  0  0  0  0
   20.7846    2.3038    0.0000 C   0  0  0  0  0  0  0  0  0  0  0  0
   21.5346    8.7990    0.0000 C   0  0  0  0  0  0  0  0  0  0  0  0
   23.0346    8.7990    0.0000 C   0  0  0  0  0  0  0  0  0  0  0  0
   23.7846   10.0981    0.0000 C   0  0  0  0  0  0  0  0  0  0  0  0
   25.2846   10.0981    0.0000 C   0  0  0  0  0  0  0  0  0  0  0  0
   26.0346   11.3971    0.0000 C   0  0  0  0  0  0  0  0  0  0  0  0
   20.7846   10.0981    0.0000 C   0  0  0  0  0  0  0  0  0  0  0  0
   21.5346   11.3971    0.0000 C   0  0  0  0  0  0  0  0  0  0  0  0
   20.7846   12.6962    0.0000 C   0  0  0  0  0  0  0  0  0  0  0  0
   23.0346   11.3971    0.0000 C   0  0  0  0  0  0  0  0  0  0  0  0
  1  2  2  0
  2  3  1  0
  3  4  2  0
  4  5  2  0
  5  6  1  0
  6  7  2  0
  7  8  2  0
  8  9  2  0
  9 10  1  0
 10 11  2  0
 11 12  2  0
 12 13  1  0
 13 14  1  0
 14 15  1  0
 15 16  2  3
 16 17  1  0
 17 18  1  0
 15 19  1  0
 19 20  1  0
 20 21  2  3
 21 22  1  0
 22 23  1  0
 22 24  1  0
 24 25  2  0
 25 26  2  0
 26 27  1  0
 24 28  1  0
 28 29  2  0
 28 30  1  0
 30 31  1  0
 22 32  1  0
 32 33  1  0
 33 34  2  3
 34 35  1  0
 35 36  2  0
 32 37  1  0
 37 38  2  0
 38 39  1  0
 38 40  1  0
M  END
