
     RDKit          2D

 35 34  0  0  0  0  0  0  0  0999 V2000
    0.0000    0.0000    0.0000 C   0  0  0  0  0  0  0  0  0  0  0  0
    1.2990    0.7500    0.0000 C   0  0  0  0  0  0  0  0  0  0  0  0
    2.5981   -0.0000    0.0000 C   0  0  0  0  0  0  0  0  0  0  0  0
    3.8971    0.7500    0.0000 C   0  0  0  0  0  0  0  0  0  0  0  0
    5.1962   -0.0000    0.0000 C   0  0  0  0  0  0  0  0  0  0  0  0
    3.8971    2.2500    0.0000 C   0  0  0  0  0  0  0  0  0  0  0  0
    5.1962    3.0000    0.0000 C   0  0  0  0  0  0  0  0  0  0  0  0
    6.4952    3.7500    0.0000 C   0  0  0  0  0  0  0  0  0  0  0  0
    5.9462    1.7010    0.0000 C   0  0  0  0  0  0  0  0  0  0  0  0
    7.4462    1.7010    0.0000 C   0  0  0  0  0  0  0  0  0  0  0  0
    4.4462    4.2990    0.0000 C   0  0  0  0  0  0  0  0  0  0  0  0
    2.9462    4.2990    0.0000 C   0  0  0  0  0  0  0  0  0  0  0  0
    2.1962    5.5981    0.0000 C   0  0  0  0  0  0  0  0  0  0  0  0
    0.6962    5.5981    0.0000 C   0  0  0  0  0  0  0  0  0  0  0  0
   -0.0538    6.8971    0.0000 C   0  0  0  0  0  0  0  0  0  0  0  0
    2.9462    6.8971    0.0000 C   0  0  0  0  0  0  0  0  0  0  0  0
    2.1962    8.1962    0.0000 C   0  0  0  0  0  0  0  0  0  0  0  0
    1.4462    9.4952    0.0000 C   0  0  0  0  0  0  0  0  0  0  0  0
    0.6962   10.7942    0.0000 C   0  0  0  0  0  0  0  0  0  0  0  0
   -0.0538   12.0933    0.0000 C   0  0  0  0  0  0  0  0  0  0  0  0
   -0.8038   13.3923    0.0000 C   0  0  0  0  0  0  0  0  0  0  0  0
   -0.0538   14.6913    0.0000 C   0  0  0  0  0  0  0  0  0  0  0  0
   -2.3038   13.3923    0.0000 C   0  0  0  0  0  0  0  0  0  0  0  0
   -3.0538   14.6913    0.0000 C   0  0  0  0  0  0  0  0  0  0  0  0
   -3.0538   12.0933    0.0000 C   0  0  0  0  0  0  0  0  0  0  0  0
   -3.8038   10.7942    0.0000 C   0  0  0  0  0  0  0  0  0  0  0  0
   -3.0538    9.4952    0.0000 C   0  0  0  0  0  0  0  0  0  0  0  0
   -3.8038    8.1962    0.0000 C   0  0  0  0  0  0  0  0  0  0  0  0
   -3.0538    6.8971    0.0000 C   0  0  0  0  0  0  0  0  0  0  0  0
   -5.3038    8.1962    0.0000 C   0  0  0  0  0  0  0  0  0  0  0  0
    5.1962    5.5981    0.0000 C   0  0  0  0  0  0  0  0  0  0  0  0
    6.6962    5.5981    0.0000 C   0  0  0  0  0  0  0  0  0  0  0  0
    7.4462    4.2990    0.0000 C   0  0  0  0  0  0  0  0  0  0  0  0
    7.4462    6.8971    0.0000 C   0  0  0  0  0  0  0  0  0  0  0  0
    8.9462    6.8971    0.0000 C   0  0  0  0  0  0  0  0  0  0  0  0
  1  2  2  0
  2  3  1  0
  3  4  1  0
  4  5  2  0
  4  6  1  0
  6  7  1  0
  7  8  1  0
  7  9  1  0
  9 10  2  0
  7 11  1  0
 11 12  1  0
 12 13  2  3
 13 14  1  0
 14 15  2  0
 13 16  1  0
 16 17  2  0
 17 18  2  0
 18 19  2  0
 19 20  2  0
 20 21  2  0
 21 22  1  0
 21 23  1  0
 23 24  1  0
 23 25  2  0
 25 26  2  0
 26 27  1  0
 27 28  2  0
 28 29  1  0
 28 30  1  0
 11 31  1  0
 31 32  1  0
 32 33  1  0
 32 34  1  0
 34 35  2  0
M  END
