
     RDKit          2D

 35 34  0  0  0  0  0  0  0  0999 V2000
    0.0000    0.0000    0.0000 C   0  0  0  0  0  0  0  0  0  0  0  0
    1.2990    0.7500    0.0000 C   0  0  0  0  0  0  0  0  0  0  0  0
    2.5981    1.5000    0.0000 C   0  0  0  0  0  0  0  0  0  0  0  0
    3.8971    2.2500    0.0000 C   0  0  0  0  0  0  0  0  0  0  0  0
    5.1962    3.0000    0.0000 C   0  0  0  0  0  0  0  0  0  0  0  0
    5.1962    4.5000    0.0000 C   0  0  0  0  0  0  0  0  0  0  0  0
    5.1962    6.0000    0.0000 C   0  0  0  0  0  0  0  0  0  0  0  0
    3.8971    6.7500    0.0000 C   0  0  0  0  0  0  0  0  0  0  0  0
    6.4952    6.7500    0.0000 C   0  0  0  0  0  0  0  0  0  0  0  0
    7.7942    7.5000    0.0000 C   0  0  0  0  0  0  0  0  0  0  0  0
    6.6962    4.5000    0.0000 C   0  0  0  0  0  0  0  0  0  0  0  0
    7.4462    5.7990    0.0000 C   0  0  0  0  0  0  0  0  0  0  0  0
    7.4462    3.2010    0.0000 C   0  0  0  0  0  0  0  0  0  0  0  0
    8.1962    1.9019    0.0000 C   0  0  0  0  0  0  0  0  0  0  0  0
    7.4462    0.6029    0.0000 C   0  0  0  0  0  0  0  0  0  0  0  0
    8.1962   -0.6962    0.0000 C   0  0  0  0  0  0  0  0  0  0  0  0
    7.4462   -1.9952    0.0000 C   0  0  0  0  0  0  0  0  0  0  0  0
    8.1962   -3.2942    0.0000 C   0  0  0  0  0  0  0  0  0  0  0  0
    9.6962   -3.2942    0.0000 C   0  0  0  0  0  0  0  0  0  0  0  0
   10.4462   -4.5933    0.0000 C   0  0  0  0  0  0  0  0  0  0  0  0
   11.9462   -4.5933    0.0000 C   0  0  0  0  0  0  0  0  0  0  0  0
    7.4462   -4.5933    0.0000 C   0  0  0  0  0  0  0  0  0  0  0  0
    8.1962   -5.8923    0.0000 C   0  0  0  0  0  0  0  0  0  0  0  0
    9.6962   -5.8923    0.0000 C   0  0  0  0  0  0  0  0  0  0  0  0
    7.4462   -7.1913    0.0000 C   0  0  0  0  0  0  0  0  0  0  0  0
    3.6962    4.5000    0.0000 C   0  0  0  0  0  0  0  0  0  0  0  0
    2.9462    5.7990    0.0000 C   0  0  0  0  0  0  0  0  0  0  0  0
    2.1962    7.0981    0.0000 C   0  0  0  0  0  0  0  0  0  0  0  0
    2.9462    8.3971    0.0000 C   0  0  0  0  0  0  0  0  0  0  0  0
    2.1962    9.6962    0.0000 C   0  0  0  0  0  0  0  0  0  0  0  0
    2.9462    3.2010    0.0000 C   0  0  0  0  0  0  0  0  0  0  0  0
    1.4462    3.2010    0.0000 C   0  0  0  0  0  0  0  0  0  0  0  0
    0.6962    1.9019    0.0000 C   0  0  0  0  0  0  0  0  0  0  0  0
    0.6962    4.5000    0.0000 C   0  0  0  0  0  0  0  0  0  0  0  0
   -0.8038    4.5000    0.0000 C   0  0  0  0  0  0  0  0  0  0  0  0
  1  2  2  0
  2  3  2  0
  3  4  2  0
  4  5  2  0
  5  6  1  0
  6  7  1  0
  7  8  1  0
  7  9  2  0
  9 10  2  0
  6 11  1  0
 11 12  1  0
 11 13  2  0
 13 14  2  0
 14 15  1  0
 15 16  2  3
 16 17  1  0
 17 18  1  0
 18 19  1  0
 19 20  2  3
 20 21  1  0
 18 22  1  0
 22 23  1  0
 23 24  2  0
 23 25  1  0
  6 26  1  0
 26 27  2  0
 27 28  2  0
 28 29  1  0
 29 30  1  0
 26 31  1  0
 31 32  1  0
 32 33  1  0
 32 34  1  0
 34 35  2  0
M  END
