
     RDKit          2D

 38 37  0  0  0  0  0  0  0  0999 V2000
    4.2452    2.4510    0.0000 C   0  0  0  0  0  0  0  0  0  0  0  0
    2.9462    1.7010    0.0000 C   0  0  0  0  0  0  0  0  0  0  0  0
    1.6471    0.9510    0.0000 C   0  0  0  0  0  0  0  0  0  0  0  0
    0.3481    1.7010    0.0000 C   0  0  0  0  0  0  0  0  0  0  0  0
   -0.4019    0.4019    0.0000 C   0  0  0  0  0  0  0  0  0  0  0  0
   -0.9510    2.4510    0.0000 C   0  0  0  0  0  0  0  0  0  0  0  0
   -0.9510    3.9510    0.0000 C   0  0  0  0  0  0  0  0  0  0  0  0
   -2.2500    4.7010    0.0000 C   0  0  0  0  0  0  0  0  0  0  0  0
    1.0981    3.0000    0.0000 C   0  0  0  0  0  0  0  0  0  0  0  0
    0.3481    4.2990    0.0000 C   0  0  0  0  0  0  0  0  0  0  0  0
    1.0981    5.5981    0.0000 C   0  0  0  0  0  0  0  0  0  0  0  0
    0.3481    6.8971    0.0000 C   0  0  0  0  0  0  0  0  0  0  0  0
   -0.4019    8.1962    0.0000 C   0  0  0  0  0  0  0  0  0  0  0  0
    0.3481    9.4952    0.0000 C   0  0  0  0  0  0  0  0  0  0  0  0
    1.8481    9.4952    0.0000 C   0  0  0  0  0  0  0  0  0  0  0  0
    2.5981   10.7942    0.0000 C   0  0  0  0  0  0  0  0  0  0  0  0
    2.5981    8.1962    0.0000 C   0  0  0  0  0  0  0  0  0  0  0  0
   -1.9019    8.1962    0.0000 C   0  0  0  0  0  0  0  0  0  0  0  0
   -2.6519    9.4952    0.0000 C   0  0  0  0  0  0  0  0  0  0  0  0
   -1.9019   10.7942    0.0000 C   0  0  0  0  0  0  0  0  0  0  0  0
   -2.6519   12.0933    0.0000 C   0  0  0  0  0  0  0  0  0  0  0  0
   -1.9019   13.3923    0.0000 C   0  0  0  0  0  0  0  0  0  0  0  0
   -1.1519   14.6913    0.0000 C   0  0  0  0  0  0  0  0  0  0  0  0
   -0.4019   15.9904    0.0000 C   0  0  0  0  0  0  0  0  0  0  0  0
   -1.1519   17.2894    0.0000 C   0  0  0  0  0  0  0  0  0  0  0  0
   -0.4019   18.5885    0.0000 C   0  0  0  0  0  0  0  0  0  0  0  0
   -1.1519   19.8875    0.0000 C   0  0  0  0  0  0  0  0  0  0  0  0
    1.0981   15.9904    0.0000 C   0  0  0  0  0  0  0  0  0  0  0  0
    1.8481   14.6913    0.0000 C   0  0  0  0  0  0  0  0  0  0  0  0
    3.3481   14.6913    0.0000 C   0  0  0  0  0  0  0  0  0  0  0  0
    4.0981   13.3923    0.0000 C   0  0  0  0  0  0  0  0  0  0  0  0
    1.0981   13.3923    0.0000 C   0  0  0  0  0  0  0  0  0  0  0  0
    1.8481   12.0933    0.0000 C   0  0  0  0  0  0  0  0  0  0  0  0
   -4.1519    9.4952    0.0000 C   0  0  0  0  0  0  0  0  0  0  0  0
   -4.9019   10.7942    0.0000 C   0  0  0  0  0  0  0  0  0  0  0  0
   -4.9019    8.1962    0.0000 C   0  0  0  0  0  0  0  0  0  0  0  0
   -5.6519    6.8971    0.0000 C   0  0  0  0  0  0  0  0  0  0  0  0
   -4.9019    5.5981    0.0000 C   0  0  0  0  0  0  0  0  0  0  0  0
  1  2  2  0
  2  3  2  0
  3  4  1  0
  4  5  1  0
  4  6  1  0
  6  7  2  3
  7  8  1  0
  4  9  1  0
  9 10  1  0
 10 11  1  0
 11 12  2  0
 12 13  2  0
 13 14  1  0
 14 15  2  0
 15 16  1  0
 15 17  1  0
 13 18  1  0
 18 19  1  0
 19 20  1  0
 20 21  1  0
 21 22  2  0
 22 23  2  0
 23 24  2  0
 24 25  1  0
 25 26  2  3
 26 27  1  0
 24 28  1  0
 28 29  2  0
 29 30  1  0
 30 31  2  0
 29 32  1  0
 32 33  2  0
 19 34  1  0
 34 35  1  0
 34 36  2  0
 36 37  2  0
 37 38  1  0
M  END
