
     RDKit          2D

 35 34  0  0  0  0  0  0  0  0999 V2000
    0.0000    0.0000    0.0000 C   0  0  0  0  0  0  0  0  0  0  0  0
    1.2990    0.7500    0.0000 C   0  0  0  0  0  0  0  0  0  0  0  0
    2.5981    1.5000    0.0000 C   0  0  0  0  0  0  0  0  0  0  0  0
    3.8971    2.2500    0.0000 C   0  0  0  0  0  0  0  0  0  0  0  0
    5.1962    1.5000    0.0000 C   0  0  0  0  0  0  0  0  0  0  0  0
    6.4952    2.2500    0.0000 C   0  0  0  0  0  0  0  0  0  0  0  0
    7.7942    1.5000    0.0000 C   0  0  0  0  0  0  0  0  0  0  0  0
    6.4952    3.7500    0.0000 C   0  0  0  0  0  0  0  0  0  0  0  0
    7.9952    3.7500    0.0000 C   0  0  0  0  0  0  0  0  0  0  0  0
    8.7452    5.0490    0.0000 C   0  0  0  0  0  0  0  0  0  0  0  0
    4.9952    3.7500    0.0000 C   0  0  0  0  0  0  0  0  0  0  0  0
    4.2452    5.0490    0.0000 C   0  0  0  0  0  0  0  0  0  0  0  0
    4.7199    6.1675    0.0000 C   0  0  0  0  0  0  0  0  0  0  0  0
    2.7452    5.0490    0.0000 C   0  0  0  0  0  0  0  0  0  0  0  0
    1.9952    6.3481    0.0000 C   0  0  0  0  0  0  0  0  0  0  0  0
    0.4952    6.3481    0.0000 C   0  0  0  0  0  0  0  0  0  0  0  0
   -0.2548    7.6471    0.0000 C   0  0  0  0  0  0  0  0  0  0  0  0
   -1.7548    7.6471    0.0000 C   0  0  0  0  0  0  0  0  0  0  0  0
   -2.5048    8.9462    0.0000 C   0  0  0  0  0  0  0  0  0  0  0  0
    2.7452    7.6471    0.0000 C   0  0  0  0  0  0  0  0  0  0  0  0
    1.9952    8.9462    0.0000 C   0  0  0  0  0  0  0  0  0  0  0  0
    2.7452   10.2452    0.0000 C   0  0  0  0  0  0  0  0  0  0  0  0
    1.9952   11.5442    0.0000 C   0  0  0  0  0  0  0  0  0  0  0  0
    6.4952    5.2500    0.0000 C   0  0  0  0  0  0  0  0  0  0  0  0
    5.5249    5.9812    0.0000 C   0  0  0  0  0  0  0  0  0  0  0  0
    7.7942    6.0000    0.0000 C   0  0  0  0  0  0  0  0  0  0  0  0
    7.7942    7.5000    0.0000 C   0  0  0  0  0  0  0  0  0  0  0  0
    9.0933    8.2500    0.0000 C   0  0  0  0  0  0  0  0  0  0  0  0
   10.3923    7.5000    0.0000 C   0  0  0  0  0  0  0  0  0  0  0  0
   11.6913    6.7500    0.0000 C   0  0  0  0  0  0  0  0  0  0  0  0
   12.9904    6.0000    0.0000 C   0  0  0  0  0  0  0  0  0  0  0  0
    9.0933    9.7500    0.0000 C   0  0  0  0  0  0  0  0  0  0  0  0
   10.3923   10.5000    0.0000 C   0  0  0  0  0  0  0  0  0  0  0  0
   10.3923   12.0000    0.0000 C   0  0  0  0  0  0  0  0  0  0  0  0
   11.6913   12.7500    0.0000 C   0  0  0  0  0  0  0  0  0  0  0  0
  1  2  2  0
  2  3  2  0
  3  4  2  0
  4  5  1  0
  5  6  2  3
  6  7  1  0
  6  8  1  0
  8  9  1  0
  9 10  1  0
  8 11  1  0
 11 12  1  0
 12 13  2  0
 12 14  1  0
 14 15  1  0
 15 16  1  0
 16 17  1  0
 17 18  2  3
 18 19  1  0
 15 20  1  0
 20 21  1  0
 21 22  2  3
 22 23  1  0
  8 24  1  0
 24 25  2  0
 24 26  1  0
 26 27  2  3
 27 28  1  0
 28 29  2  0
 29 30  2  0
 30 31  2  0
 28 32  1  0
 32 33  2  3
 33 34  1  0
 34 35  2  0
M  END
