
     RDKit          2D

 33 32  0  0  0  0  0  0  0  0999 V2000
    0.0000    0.0000    0.0000 C   0  0  0  0  0  0  0  0  0  0  0  0
    1.2990    0.7500    0.0000 C   0  0  0  0  0  0  0  0  0  0  0  0
    2.5981   -0.0000    0.0000 C   0  0  0  0  0  0  0  0  0  0  0  0
    3.8971    0.7500    0.0000 C   0  0  0  0  0  0  0  0  0  0  0  0
    5.1962    1.5000    0.0000 C   0  0  0  0  0  0  0  0  0  0  0  0
    6.4952    2.2500    0.0000 C   0  0  0  0  0  0  0  0  0  0  0  0
    7.7942    1.5000    0.0000 C   0  0  0  0  0  0  0  0  0  0  0  0
    9.0933    2.2500    0.0000 C   0  0  0  0  0  0  0  0  0  0  0  0
   10.3923    1.5000    0.0000 C   0  0  0  0  0  0  0  0  0  0  0  0
   11.6913    2.2500    0.0000 C   0  0  0  0  0  0  0  0  0  0  0  0
   10.3923   -0.0000    0.0000 C   0  0  0  0  0  0  0  0  0  0  0  0
   11.8923   -0.0000    0.0000 C   0  0  0  0  0  0  0  0  0  0  0  0
    8.8923   -0.0000    0.0000 C   0  0  0  0  0  0  0  0  0  0  0  0
   10.3923   -1.5000    0.0000 C   0  0  0  0  0  0  0  0  0  0  0  0
    9.0933   -2.2500    0.0000 C   0  0  0  0  0  0  0  0  0  0  0  0
    7.7942   -1.5000    0.0000 C   0  0  0  0  0  0  0  0  0  0  0  0
    6.4952   -2.2500    0.0000 C   0  0  0  0  0  0  0  0  0  0  0  0
   11.6913   -2.2500    0.0000 C   0  0  0  0  0  0  0  0  0  0  0  0
   12.9904   -3.0000    0.0000 C   0  0  0  0  0  0  0  0  0  0  0  0
   14.2894   -2.2500    0.0000 C   0  0  0  0  0  0  0  0  0  0  0  0
   12.4413   -0.9510    0.0000 C   0  0  0  0  0  0  0  0  0  0  0  0
   13.9413   -0.9510    0.0000 C   0  0  0  0  0  0  0  0  0  0  0  0
   15.4413   -0.9510    0.0000 C   0  0  0  0  0  0  0  0  0  0  0  0
   16.1913   -2.2500    0.0000 C   0  0  0  0  0  0  0  0  0  0  0  0
   15.4413   -3.5490    0.0000 C   0  0  0  0  0  0  0  0  0  0  0  0
   17.6913   -2.2500    0.0000 C   0  0  0  0  0  0  0  0  0  0  0  0
   18.4413   -3.5490    0.0000 C   0  0  0  0  0  0  0  0  0  0  0  0
   19.9413   -3.5490    0.0000 C   0  0  0  0  0  0  0  0  0  0  0  0
   17.6913   -4.8481    0.0000 C   0  0  0  0  0  0  0  0  0  0  0  0
   18.4413   -6.1471    0.0000 C   0  0  0  0  0  0  0  0  0  0  0  0
   10.9413   -3.5490    0.0000 C   0  0  0  0  0  0  0  0  0  0  0  0
    9.4413   -3.5490    0.0000 C   0  0  0  0  0  0  0  0  0  0  0  0
   11.6913   -4.8481    0.0000 C   0  0  0  0  0  0  0  0  0  0  0  0
  1  2  2  0
  2  3  1  0
  3  4  2  0
  4  5  2  0
  5  6  2  0
  6  7  1  0
  7  8  2  3
  8  9  1  0
  9 10  2  0
  9 11  1  0
 11 12  1  0
 11 13  1  0
 11 14  1  0
 14 15  1  0
 15 16  1  0
 16 17  1  0
 14 18  1  0
 18 19  1  0
 19 20  2  0
 18 21  1  0
 21 22  2  0
 22 23  2  0
 23 24  1  0
 24 25  2  0
 24 26  1  0
 26 27  1  0
 27 28  2  0
 27 29  1  0
 29 30  2  0
 18 31  1  0
 31 32  2  0
 31 33  1  0
M  END
