
     RDKit          2D

 40 39  0  0  0  0  0  0  0  0999 V2000
   12.9904    0.0000    0.0000 C   0  0  0  0  0  0  0  0  0  0  0  0
   11.6913    0.7500    0.0000 C   0  0  0  0  0  0  0  0  0  0  0  0
   10.3923    1.5000    0.0000 C   0  0  0  0  0  0  0  0  0  0  0  0
   10.3923    3.0000    0.0000 C   0  0  0  0  0  0  0  0  0  0  0  0
    9.0933    3.7500    0.0000 C   0  0  0  0  0  0  0  0  0  0  0  0
    9.0933    5.2500    0.0000 C   0  0  0  0  0  0  0  0  0  0  0  0
    7.7942    6.0000    0.0000 C   0  0  0  0  0  0  0  0  0  0  0  0
    7.7942    7.5000    0.0000 C   0  0  0  0  0  0  0  0  0  0  0  0
    6.4952    8.2500    0.0000 C   0  0  0  0  0  0  0  0  0  0  0  0
    6.4952    5.2500    0.0000 C   0  0  0  0  0  0  0  0  0  0  0  0
    5.1962    6.0000    0.0000 C   0  0  0  0  0  0  0  0  0  0  0  0
    6.4952    3.7500    0.0000 C   0  0  0  0  0  0  0  0  0  0  0  0
    7.7942    3.0000    0.0000 C   0  0  0  0  0  0  0  0  0  0  0  0
    9.0933    2.2500    0.0000 C   0  0  0  0  0  0  0  0  0  0  0  0
    8.5442    4.2990    0.0000 C   0  0  0  0  0  0  0  0  0  0  0  0
    8.2429    5.3502    0.0000 C   0  0  0  0  0  0  0  0  0  0  0  0
   10.0442    4.2990    0.0000 C   0  0  0  0  0  0  0  0  0  0  0  0
   11.5442    4.2990    0.0000 C   0  0  0  0  0  0  0  0  0  0  0  0
    7.0442    1.7010    0.0000 C   0  0  0  0  0  0  0  0  0  0  0  0
    7.7942    0.4019    0.0000 C   0  0  0  0  0  0  0  0  0  0  0  0
    5.5442    1.7010    0.0000 C   0  0  0  0  0  0  0  0  0  0  0  0
    4.0442    1.7010    0.0000 C   0  0  0  0  0  0  0  0  0  0  0  0
    3.2942    0.4019    0.0000 C   0  0  0  0  0  0  0  0  0  0  0  0
    4.0442   -0.8971    0.0000 C   0  0  0  0  0  0  0  0  0  0  0  0
    3.2942   -2.1962    0.0000 C   0  0  0  0  0  0  0  0  0  0  0  0
    4.0442   -3.4952    0.0000 C   0  0  0  0  0  0  0  0  0  0  0  0
    1.7942   -2.1962    0.0000 C   0  0  0  0  0  0  0  0  0  0  0  0
    1.0442   -3.4952    0.0000 C   0  0  0  0  0  0  0  0  0  0  0  0
    3.2942    3.0000    0.0000 C   0  0  0  0  0  0  0  0  0  0  0  0
    4.0442    4.2990    0.0000 C   0  0  0  0  0  0  0  0  0  0  0  0
    3.2942    5.5981    0.0000 C   0  0  0  0  0  0  0  0  0  0  0  0
    4.0442    6.8971    0.0000 C   0  0  0  0  0  0  0  0  0  0  0  0
    3.2942    8.1962    0.0000 C   0  0  0  0  0  0  0  0  0  0  0  0
    2.5442    9.4952    0.0000 C   0  0  0  0  0  0  0  0  0  0  0  0
    1.7942   10.7942    0.0000 C   0  0  0  0  0  0  0  0  0  0  0  0
    2.5442   12.0933    0.0000 C   0  0  0  0  0  0  0  0  0  0  0  0
    1.7942   13.3923    0.0000 C   0  0  0  0  0  0  0  0  0  0  0  0
    1.7942    3.0000    0.0000 C   0  0  0  0  0  0  0  0  0  0  0  0
    1.0442    4.2990    0.0000 C   0  0  0  0  0  0  0  0  0  0  0  0
   -0.4558    4.2990    0.0000 C   0  0  0  0  0  0  0  0  0  0  0  0
  1  2  2  0
  2  3  2  0
  3  4  1  0
  4  5  2  3
  5  6  1  0
  6  7  1  0
  7  8  2  3
  8  9  1  0
  7 10  1  0
 10 11  2  0
 10 12  1  0
 12 13  1  0
 13 14  1  0
 13 15  1  0
 15 16  1  0
 15 17  2  0
 17 18  2  0
 13 19  1  0
 19 20  1  0
 19 21  2  0
 21 22  2  0
 22 23  1  0
 23 24  2  3
 24 25  1  0
 25 26  1  0
 25 27  2  3
 27 28  1  0
 22 29  1  0
 29 30  1  0
 30 31  2  3
 31 32  1  0
 32 33  2  0
 33 34  2  0
 34 35  2  0
 35 36  1  0
 36 37  1  0
 29 38  1  0
 38 39  1  0
 39 40  2  0
M  END
