
     RDKit          2D

 35 34  0  0  0  0  0  0  0  0999 V2000
    0.0000    0.0000    0.0000 C   0  0  0  0  0  0  0  0  0  0  0  0
    1.2990    0.7500    0.0000 C   0  0  0  0  0  0  0  0  0  0  0  0
    2.5981    1.5000    0.0000 C   0  0  0  0  0  0  0  0  0  0  0  0
    2.5981    3.0000    0.0000 C   0  0  0  0  0  0  0  0  0  0  0  0
    3.8971    3.7500    0.0000 C   0  0  0  0  0  0  0  0  0  0  0  0
    5.1962    3.0000    0.0000 C   0  0  0  0  0  0  0  0  0  0  0  0
    6.4952    3.7500    0.0000 C   0  0  0  0  0  0  0  0  0  0  0  0
    7.7942    3.0000    0.0000 C   0  0  0  0  0  0  0  0  0  0  0  0
    5.1962    1.5000    0.0000 C   0  0  0  0  0  0  0  0  0  0  0  0
    6.4952    0.7500    0.0000 C   0  0  0  0  0  0  0  0  0  0  0  0
    7.7942    0.0000    0.0000 C   0  0  0  0  0  0  0  0  0  0  0  0
    9.0933   -0.7500    0.0000 C   0  0  0  0  0  0  0  0  0  0  0  0
   10.3923   -1.5000    0.0000 C   0  0  0  0  0  0  0  0  0  0  0  0
   11.6913   -0.7500    0.0000 C   0  0  0  0  0  0  0  0  0  0  0  0
   12.9904   -1.5000    0.0000 C   0  0  0  0  0  0  0  0  0  0  0  0
    3.8971    5.2500    0.0000 C   0  0  0  0  0  0  0  0  0  0  0  0
    3.8971    6.7500    0.0000 C   0  0  0  0  0  0  0  0  0  0  0  0
    5.1962    7.5000    0.0000 C   0  0  0  0  0  0  0  0  0  0  0  0
    6.4952    8.2500    0.0000 C   0  0  0  0  0  0  0  0  0  0  0  0
    5.3971    5.2500    0.0000 C   0  0  0  0  0  0  0  0  0  0  0  0
    6.1471    6.5490    0.0000 C   0  0  0  0  0  0  0  0  0  0  0  0
    7.6471    6.5490    0.0000 C   0  0  0  0  0  0  0  0  0  0  0  0
    8.3971    7.8481    0.0000 C   0  0  0  0  0  0  0  0  0  0  0  0
    8.3971    5.2500    0.0000 C   0  0  0  0  0  0  0  0  0  0  0  0
    9.8971    5.2500    0.0000 C   0  0  0  0  0  0  0  0  0  0  0  0
    2.3971    5.2500    0.0000 C   0  0  0  0  0  0  0  0  0  0  0  0
    1.6471    3.9510    0.0000 C   0  0  0  0  0  0  0  0  0  0  0  0
    0.1471    3.9510    0.0000 C   0  0  0  0  0  0  0  0  0  0  0  0
    1.6471    6.5490    0.0000 C   0  0  0  0  0  0  0  0  0  0  0  0
    2.3971    7.8481    0.0000 C   0  0  0  0  0  0  0  0  0  0  0  0
    0.1471    6.5490    0.0000 C   0  0  0  0  0  0  0  0  0  0  0  0
   -0.6029    7.8481    0.0000 C   0  0  0  0  0  0  0  0  0  0  0  0
   -2.1029    7.8481    0.0000 C   0  0  0  0  0  0  0  0  0  0  0  0
    0.1471    9.1471    0.0000 C   0  0  0  0  0  0  0  0  0  0  0  0
   -0.6029   10.4462    0.0000 C   0  0  0  0  0  0  0  0  0  0  0  0
  1  2  2  0
  2  3  2  0
  3  4  1  0
  4  5  1  0
  5  6  2  3
  6  7  1  0
  7  8  2  0
  6  9  1  0
  9 10  2  0
 10 11  2  0
 11 12  2  0
 12 13  2  0
 13 14  1  0
 14 15  1  0
  5 16  1  0
 16 17  1  0
 17 18  2  0
 18 19  2  0
 16 20  1  0
 20 21  2  3
 21 22  1  0
 22 23  1  0
 22 24  2  3
 24 25  1  0
 16 26  1  0
 26 27  1  0
 27 28  1  0
 26 29  1  0
 29 30  1  0
 29 31  2  3
 31 32  1  0
 32 33  1  0
 32 34  2  3
 34 35  1  0
M  END
