
     RDKit          2D

 35 34  0  0  0  0  0  0  0  0999 V2000
    0.0000    0.0000    0.0000 C   0  0  0  0  0  0  0  0  0  0  0  0
    1.2990    0.7500    0.0000 C   0  0  0  0  0  0  0  0  0  0  0  0
    2.5981    1.5000    0.0000 C   0  0  0  0  0  0  0  0  0  0  0  0
    2.5981    3.0000    0.0000 C   0  0  0  0  0  0  0  0  0  0  0  0
    3.8971    3.7500    0.0000 C   0  0  0  0  0  0  0  0  0  0  0  0
    5.1962    4.5000    0.0000 C   0  0  0  0  0  0  0  0  0  0  0  0
    6.4952    3.7500    0.0000 C   0  0  0  0  0  0  0  0  0  0  0  0
    5.1962    6.0000    0.0000 C   0  0  0  0  0  0  0  0  0  0  0  0
    6.4952    6.7500    0.0000 C   0  0  0  0  0  0  0  0  0  0  0  0
    7.7942    7.5000    0.0000 C   0  0  0  0  0  0  0  0  0  0  0  0
    9.0933    6.7500    0.0000 C   0  0  0  0  0  0  0  0  0  0  0  0
   10.3923    7.5000    0.0000 C   0  0  0  0  0  0  0  0  0  0  0  0
   11.6913    8.2500    0.0000 C   0  0  0  0  0  0  0  0  0  0  0  0
    9.6423    8.7990    0.0000 C   0  0  0  0  0  0  0  0  0  0  0  0
   10.3923   10.0981    0.0000 C   0  0  0  0  0  0  0  0  0  0  0  0
   11.1423    6.2010    0.0000 C   0  0  0  0  0  0  0  0  0  0  0  0
   12.6423    6.2010    0.0000 C   0  0  0  0  0  0  0  0  0  0  0  0
   13.3923    4.9019    0.0000 C   0  0  0  0  0  0  0  0  0  0  0  0
   13.3923    7.5000    0.0000 C   0  0  0  0  0  0  0  0  0  0  0  0
   14.8923    7.5000    0.0000 C   0  0  0  0  0  0  0  0  0  0  0  0
   15.6423    8.7990    0.0000 C   0  0  0  0  0  0  0  0  0  0  0  0
    3.8971    0.7500    0.0000 C   0  0  0  0  0  0  0  0  0  0  0  0
    3.8971   -0.7500    0.0000 C   0  0  0  0  0  0  0  0  0  0  0  0
    3.8971   -2.2500    0.0000 C   0  0  0  0  0  0  0  0  0  0  0  0
    5.1962   -3.0000    0.0000 C   0  0  0  0  0  0  0  0  0  0  0  0
    5.1962   -4.5000    0.0000 C   0  0  0  0  0  0  0  0  0  0  0  0
    3.8971   -5.2500    0.0000 C   0  0  0  0  0  0  0  0  0  0  0  0
    3.8971   -6.7500    0.0000 C   0  0  0  0  0  0  0  0  0  0  0  0
    6.4952   -5.2500    0.0000 C   0  0  0  0  0  0  0  0  0  0  0  0
    6.4952   -6.7500    0.0000 C   0  0  0  0  0  0  0  0  0  0  0  0
    2.5981   -3.0000    0.0000 C   0  0  0  0  0  0  0  0  0  0  0  0
    2.5981   -4.5000    0.0000 C   0  0  0  0  0  0  0  0  0  0  0  0
    1.2990   -5.2500    0.0000 C   0  0  0  0  0  0  0  0  0  0  0  0
    1.2990   -6.7500    0.0000 C   0  0  0  0  0  0  0  0  0  0  0  0
    0.0000   -7.5000    0.0000 C   0  0  0  0  0  0  0  0  0  0  0  0
  1  2  2  0
  2  3  2  0
  3  4  1  0
  4  5  2  0
  5  6  2  0
  6  7  1  0
  6  8  1  0
  8  9  2  0
  9 10  2  0
 10 11  1  0
 11 12  1  0
 12 13  1  0
 12 14  1  0
 14 15  2  0
 12 16  1  0
 16 17  2  3
 17 18  1  0
 17 19  1  0
 19 20  2  3
 20 21  1  0
  3 22  1  0
 22 23  2  0
 23 24  2  0
 24 25  1  0
 25 26  2  3
 26 27  1  0
 27 28  2  0
 26 29  1  0
 29 30  1  0
 24 31  1  0
 31 32  1  0
 32 33  1  0
 33 34  2  3
 34 35  1  0
M  END
