
     RDKit          2D

 40 39  0  0  0  0  0  0  0  0999 V2000
    0.0000    0.0000    0.0000 C   0  0  0  0  0  0  0  0  0  0  0  0
    1.2990    0.7500    0.0000 C   0  0  0  0  0  0  0  0  0  0  0  0
    2.5981    1.5000    0.0000 C   0  0  0  0  0  0  0  0  0  0  0  0
    3.8971    2.2500    0.0000 C   0  0  0  0  0  0  0  0  0  0  0  0
    5.1962    1.5000    0.0000 C   0  0  0  0  0  0  0  0  0  0  0  0
    6.4952    2.2500    0.0000 C   0  0  0  0  0  0  0  0  0  0  0  0
    5.7452    3.5490    0.0000 C   0  0  0  0  0  0  0  0  0  0  0  0
    6.4952    4.8481    0.0000 C   0  0  0  0  0  0  0  0  0  0  0  0
    7.2452    6.1471    0.0000 C   0  0  0  0  0  0  0  0  0  0  0  0
    7.9952    7.4462    0.0000 C   0  0  0  0  0  0  0  0  0  0  0  0
    7.2452    8.7452    0.0000 C   0  0  0  0  0  0  0  0  0  0  0  0
    7.9952   10.0442    0.0000 C   0  0  0  0  0  0  0  0  0  0  0  0
    8.7452   11.3433    0.0000 C   0  0  0  0  0  0  0  0  0  0  0  0
    6.6962   10.7942    0.0000 C   0  0  0  0  0  0  0  0  0  0  0  0
    6.6962   12.2942    0.0000 C   0  0  0  0  0  0  0  0  0  0  0  0
    6.6962   13.7942    0.0000 C   0  0  0  0  0  0  0  0  0  0  0  0
    6.6962   15.2942    0.0000 C   0  0  0  0  0  0  0  0  0  0  0  0
    5.3971   16.0442    0.0000 C   0  0  0  0  0  0  0  0  0  0  0  0
    5.3971   17.5442    0.0000 C   0  0  0  0  0  0  0  0  0  0  0  0
    5.3971   19.0442    0.0000 C   0  0  0  0  0  0  0  0  0  0  0  0
    9.2942    9.2942    0.0000 C   0  0  0  0  0  0  0  0  0  0  0  0
    9.2942    7.7942    0.0000 C   0  0  0  0  0  0  0  0  0  0  0  0
   10.5933    7.0442    0.0000 C   0  0  0  0  0  0  0  0  0  0  0  0
   10.5933    5.5442    0.0000 C   0  0  0  0  0  0  0  0  0  0  0  0
   11.8923    4.7942    0.0000 C   0  0  0  0  0  0  0  0  0  0  0  0
    9.2942    4.7942    0.0000 C   0  0  0  0  0  0  0  0  0  0  0  0
   10.5933   10.0442    0.0000 C   0  0  0  0  0  0  0  0  0  0  0  0
   10.5933   11.5442    0.0000 C   0  0  0  0  0  0  0  0  0  0  0  0
   11.8923    9.2942    0.0000 C   0  0  0  0  0  0  0  0  0  0  0  0
   11.8923    7.7942    0.0000 C   0  0  0  0  0  0  0  0  0  0  0  0
   13.1913   10.0442    0.0000 C   0  0  0  0  0  0  0  0  0  0  0  0
   13.1913   11.5442    0.0000 C   0  0  0  0  0  0  0  0  0  0  0  0
    7.7942    3.0000    0.0000 C   0  0  0  0  0  0  0  0  0  0  0  0
    9.0933    2.2500    0.0000 C   0  0  0  0  0  0  0  0  0  0  0  0
    9.2414    1.0441    0.0000 C   0  0  0  0  0  0  0  0  0  0  0  0
   10.3923    3.0000    0.0000 C   0  0  0  0  0  0  0  0  0  0  0  0
    7.2452    0.9510    0.0000 C   0  0  0  0  0  0  0  0  0  0  0  0
    8.4511    0.8029    0.0000 C   0  0  0  0  0  0  0  0  0  0  0  0
    6.4952   -0.3481    0.0000 C   0  0  0  0  0  0  0  0  0  0  0  0
    7.2452   -1.6471    0.0000 C   0  0  0  0  0  0  0  0  0  0  0  0
  1  2  2  0
  2  3  2  0
  3  4  2  0
  4  5  1  0
  5  6  1  0
  6  7  1  0
  7  8  2  0
  8  9  2  0
  9 10  2  0
 10 11  1  0
 11 12  1  0
 12 13  1  0
 12 14  1  0
 14 15  2  0
 15 16  2  0
 16 17  2  0
 17 18  1  0
 18 19  2  0
 19 20  2  0
 12 21  1  0
 21 22  1  0
 22 23  2  3
 23 24  1  0
 24 25  1  0
 24 26  1  0
 21 27  1  0
 27 28  2  0
 27 29  1  0
 29 30  1  0
 29 31  1  0
 31 32  2  0
  6 33  1  0
 33 34  1  0
 34 35  1  0
 34 36  1  0
  6 37  1  0
 37 38  2  0
 37 39  1  0
 39 40  2  0
M  END
