
     RDKit          2D

 40 39  0  0  0  0  0  0  0  0999 V2000
    0.0000    0.0000    0.0000 C   0  0  0  0  0  0  0  0  0  0  0  0
    1.2990    0.7500    0.0000 C   0  0  0  0  0  0  0  0  0  0  0  0
    2.5981    1.5000    0.0000 C   0  0  0  0  0  0  0  0  0  0  0  0
    3.8971    2.2500    0.0000 C   0  0  0  0  0  0  0  0  0  0  0  0
    5.1962    3.0000    0.0000 C   0  0  0  0  0  0  0  0  0  0  0  0
    5.1962    4.5000    0.0000 C   0  0  0  0  0  0  0  0  0  0  0  0
    6.4952    5.2500    0.0000 C   0  0  0  0  0  0  0  0  0  0  0  0
    7.7942    6.0000    0.0000 C   0  0  0  0  0  0  0  0  0  0  0  0
    5.7452    6.5490    0.0000 C   0  0  0  0  0  0  0  0  0  0  0  0
    6.4952    7.8481    0.0000 C   0  0  0  0  0  0  0  0  0  0  0  0
    7.2452    3.9510    0.0000 C   0  0  0  0  0  0  0  0  0  0  0  0
    8.7452    3.9510    0.0000 C   0  0  0  0  0  0  0  0  0  0  0  0
    9.4952    5.2500    0.0000 C   0  0  0  0  0  0  0  0  0  0  0  0
   10.2452    6.5490    0.0000 C   0  0  0  0  0  0  0  0  0  0  0  0
    9.4952    2.6519    0.0000 C   0  0  0  0  0  0  0  0  0  0  0  0
   10.9952    2.6519    0.0000 C   0  0  0  0  0  0  0  0  0  0  0  0
    8.7452    1.3529    0.0000 C   0  0  0  0  0  0  0  0  0  0  0  0
    9.4952    0.0538    0.0000 C   0  0  0  0  0  0  0  0  0  0  0  0
    8.7452   -1.2452    0.0000 C   0  0  0  0  0  0  0  0  0  0  0  0
    9.4952   -2.5442    0.0000 C   0  0  0  0  0  0  0  0  0  0  0  0
   10.9952   -2.5442    0.0000 C   0  0  0  0  0  0  0  0  0  0  0  0
    8.7452   -3.8433    0.0000 C   0  0  0  0  0  0  0  0  0  0  0  0
    9.4952   -5.1423    0.0000 C   0  0  0  0  0  0  0  0  0  0  0  0
    7.2452   -3.8433    0.0000 C   0  0  0  0  0  0  0  0  0  0  0  0
    6.4952   -2.5442    0.0000 C   0  0  0  0  0  0  0  0  0  0  0  0
    6.4952   -5.1423    0.0000 C   0  0  0  0  0  0  0  0  0  0  0  0
    5.7452   -6.4413    0.0000 C   0  0  0  0  0  0  0  0  0  0  0  0
    4.2452   -6.4413    0.0000 C   0  0  0  0  0  0  0  0  0  0  0  0
    3.4952   -7.7404    0.0000 C   0  0  0  0  0  0  0  0  0  0  0  0
    1.9952   -7.7404    0.0000 C   0  0  0  0  0  0  0  0  0  0  0  0
    6.4952   -7.7404    0.0000 C   0  0  0  0  0  0  0  0  0  0  0  0
    5.7452   -9.0394    0.0000 C   0  0  0  0  0  0  0  0  0  0  0  0
    7.9952   -7.7404    0.0000 C   0  0  0  0  0  0  0  0  0  0  0  0
   10.9952    0.0538    0.0000 C   0  0  0  0  0  0  0  0  0  0  0  0
   11.7452   -1.2452    0.0000 C   0  0  0  0  0  0  0  0  0  0  0  0
   11.7452    1.3529    0.0000 C   0  0  0  0  0  0  0  0  0  0  0  0
   13.2452    1.3529    0.0000 C   0  0  0  0  0  0  0  0  0  0  0  0
   14.7452    1.3529    0.0000 C   0  0  0  0  0  0  0  0  0  0  0  0
   15.4952    0.0538    0.0000 C   0  0  0  0  0  0  0  0  0  0  0  0
   16.9952    0.0538    0.0000 C   0  0  0  0  0  0  0  0  0  0  0  0
  1  2  2  0
  2  3  2  0
  3  4  2  0
  4  5  2  0
  5  6  1  0
  6  7  1  0
  7  8  1  0
  7  9  1  0
  9 10  2  0
  7 11  1  0
 11 12  1  0
 12 13  2  0
 13 14  2  0
 12 15  1  0
 15 16  2  0
 15 17  1  0
 17 18  2  3
 18 19  1  0
 19 20  1  0
 20 21  1  0
 20 22  1  0
 22 23  1  0
 22 24  1  0
 24 25  1  0
 24 26  2  0
 26 27  2  0
 27 28  1  0
 28 29  1  0
 29 30  2  0
 27 31  1  0
 31 32  2  0
 31 33  1  0
 18 34  1  0
 34 35  1  0
 34 36  1  0
 36 37  2  0
 37 38  2  0
 38 39  1  0
 39 40  2  0
M  END
