
     RDKit          2D

 40 39  0  0  0  0  0  0  0  0999 V2000
   10.7404    6.2010    0.0000 C   0  0  0  0  0  0  0  0  0  0  0  0
    9.4413    5.4510    0.0000 C   0  0  0  0  0  0  0  0  0  0  0  0
    8.1423    4.7010    0.0000 C   0  0  0  0  0  0  0  0  0  0  0  0
    6.8433    3.9510    0.0000 C   0  0  0  0  0  0  0  0  0  0  0  0
    6.8433    2.4510    0.0000 C   0  0  0  0  0  0  0  0  0  0  0  0
    5.5442    1.7010    0.0000 C   0  0  0  0  0  0  0  0  0  0  0  0
    5.5442    0.2010    0.0000 C   0  0  0  0  0  0  0  0  0  0  0  0
    4.2452   -0.5490    0.0000 C   0  0  0  0  0  0  0  0  0  0  0  0
    4.2452    2.4510    0.0000 C   0  0  0  0  0  0  0  0  0  0  0  0
    2.9462    3.2010    0.0000 C   0  0  0  0  0  0  0  0  0  0  0  0
    1.6471    2.4510    0.0000 C   0  0  0  0  0  0  0  0  0  0  0  0
    0.3481    3.2010    0.0000 C   0  0  0  0  0  0  0  0  0  0  0  0
   -0.9510    2.4510    0.0000 C   0  0  0  0  0  0  0  0  0  0  0  0
    3.4952    1.1519    0.0000 C   0  0  0  0  0  0  0  0  0  0  0  0
    1.9952    1.1519    0.0000 C   0  0  0  0  0  0  0  0  0  0  0  0
    4.9952    3.7500    0.0000 C   0  0  0  0  0  0  0  0  0  0  0  0
    4.2452    5.0490    0.0000 C   0  0  0  0  0  0  0  0  0  0  0  0
    4.9952    6.3481    0.0000 C   0  0  0  0  0  0  0  0  0  0  0  0
    4.2452    7.6471    0.0000 C   0  0  0  0  0  0  0  0  0  0  0  0
    4.9952    8.9462    0.0000 C   0  0  0  0  0  0  0  0  0  0  0  0
    4.2452   10.2452    0.0000 C   0  0  0  0  0  0  0  0  0  0  0  0
    4.9952   11.5442    0.0000 C   0  0  0  0  0  0  0  0  0  0  0  0
    6.4952   11.5442    0.0000 C   0  0  0  0  0  0  0  0  0  0  0  0
    7.9952   11.5442    0.0000 C   0  0  0  0  0  0  0  0  0  0  0  0
    4.2452   12.8433    0.0000 C   0  0  0  0  0  0  0  0  0  0  0  0
    4.9952   14.1423    0.0000 C   0  0  0  0  0  0  0  0  0  0  0  0
    5.7452   15.4413    0.0000 C   0  0  0  0  0  0  0  0  0  0  0  0
    6.4952   16.7404    0.0000 C   0  0  0  0  0  0  0  0  0  0  0  0
    5.7452   18.0394    0.0000 C   0  0  0  0  0  0  0  0  0  0  0  0
    6.4952   19.3385    0.0000 C   0  0  0  0  0  0  0  0  0  0  0  0
    4.2452   18.0394    0.0000 C   0  0  0  0  0  0  0  0  0  0  0  0
    4.2452   19.5394    0.0000 C   0  0  0  0  0  0  0  0  0  0  0  0
    2.7452   18.0394    0.0000 C   0  0  0  0  0  0  0  0  0  0  0  0
    1.9952   16.7404    0.0000 C   0  0  0  0  0  0  0  0  0  0  0  0
    1.2452   15.4413    0.0000 C   0  0  0  0  0  0  0  0  0  0  0  0
    4.2452   16.5394    0.0000 C   0  0  0  0  0  0  0  0  0  0  0  0
    2.9462   15.7894    0.0000 C   0  0  0  0  0  0  0  0  0  0  0  0
    2.7452    5.0490    0.0000 C   0  0  0  0  0  0  0  0  0  0  0  0
    1.9952    6.3481    0.0000 C   0  0  0  0  0  0  0  0  0  0  0  0
    0.4952    6.3481    0.0000 C   0  0  0  0  0  0  0  0  0  0  0  0
  1  2  2  0
  2  3  2  0
  3  4  2  0
  4  5  1  0
  5  6  2  3
  6  7  1  0
  7  8  2  0
  6  9  1  0
  9 10  1  0
 10 11  2  3
 11 12  1  0
 12 13  1  0
  9 14  1  0
 14 15  1  0
  9 16  1  0
 16 17  1  0
 17 18  1  0
 18 19  2  3
 19 20  1  0
 20 21  1  0
 21 22  1  0
 22 23  2  0
 23 24  2  0
 22 25  1  0
 25 26  2  0
 26 27  2  0
 27 28  2  0
 28 29  1  0
 29 30  2  0
 29 31  1  0
 31 32  1  0
 31 33  1  0
 33 34  2  0
 34 35  2  0
 31 36  1  0
 36 37  1  0
 17 38  1  0
 38 39  1  0
 39 40  2  0
M  END
