
     RDKit          2D

 40 39  0  0  0  0  0  0  0  0999 V2000
    0.0000    0.0000    0.0000 C   0  0  0  0  0  0  0  0  0  0  0  0
    1.2990    0.7500    0.0000 C   0  0  0  0  0  0  0  0  0  0  0  0
    2.5981    1.5000    0.0000 C   0  0  0  0  0  0  0  0  0  0  0  0
    2.5981    3.0000    0.0000 C   0  0  0  0  0  0  0  0  0  0  0  0
    3.8971    3.7500    0.0000 C   0  0  0  0  0  0  0  0  0  0  0  0
    5.1962    3.0000    0.0000 C   0  0  0  0  0  0  0  0  0  0  0  0
    6.4952    2.2500    0.0000 C   0  0  0  0  0  0  0  0  0  0  0  0
    3.8971    5.2500    0.0000 C   0  0  0  0  0  0  0  0  0  0  0  0
    3.8971    6.7500    0.0000 C   0  0  0  0  0  0  0  0  0  0  0  0
    2.5981    7.5000    0.0000 C   0  0  0  0  0  0  0  0  0  0  0  0
    2.5981    9.0000    0.0000 C   0  0  0  0  0  0  0  0  0  0  0  0
    1.2990    9.7500    0.0000 C   0  0  0  0  0  0  0  0  0  0  0  0
    3.8971    9.7500    0.0000 C   0  0  0  0  0  0  0  0  0  0  0  0
    3.8971   11.2500    0.0000 C   0  0  0  0  0  0  0  0  0  0  0  0
    5.3971    5.2500    0.0000 C   0  0  0  0  0  0  0  0  0  0  0  0
    6.1471    6.5490    0.0000 C   0  0  0  0  0  0  0  0  0  0  0  0
    5.3971    7.8481    0.0000 C   0  0  0  0  0  0  0  0  0  0  0  0
    4.6471    9.1471    0.0000 C   0  0  0  0  0  0  0  0  0  0  0  0
    7.6471    6.5490    0.0000 C   0  0  0  0  0  0  0  0  0  0  0  0
    8.3971    7.8481    0.0000 C   0  0  0  0  0  0  0  0  0  0  0  0
    9.8971    7.8481    0.0000 C   0  0  0  0  0  0  0  0  0  0  0  0
    7.6471    9.1471    0.0000 C   0  0  0  0  0  0  0  0  0  0  0  0
    8.3971   10.4462    0.0000 C   0  0  0  0  0  0  0  0  0  0  0  0
    7.6471   11.7452    0.0000 C   0  0  0  0  0  0  0  0  0  0  0  0
    8.3971   13.0442    0.0000 C   0  0  0  0  0  0  0  0  0  0  0  0
    9.8971   10.4462    0.0000 C   0  0  0  0  0  0  0  0  0  0  0  0
   10.6471   11.7452    0.0000 C   0  0  0  0  0  0  0  0  0  0  0  0
    9.8971   13.0442    0.0000 C   0  0  0  0  0  0  0  0  0  0  0  0
   12.1471   11.7452    0.0000 C   0  0  0  0  0  0  0  0  0  0  0  0
   12.8971   10.4462    0.0000 C   0  0  0  0  0  0  0  0  0  0  0  0
   13.6471    9.1471    0.0000 C   0  0  0  0  0  0  0  0  0  0  0  0
   12.8971   13.0442    0.0000 C   0  0  0  0  0  0  0  0  0  0  0  0
   14.3971   13.0442    0.0000 C   0  0  0  0  0  0  0  0  0  0  0  0
   12.1471   14.3433    0.0000 C   0  0  0  0  0  0  0  0  0  0  0  0
   12.8971   15.6423    0.0000 C   0  0  0  0  0  0  0  0  0  0  0  0
   14.3971   15.6423    0.0000 C   0  0  0  0  0  0  0  0  0  0  0  0
   12.1471   16.9413    0.0000 C   0  0  0  0  0  0  0  0  0  0  0  0
    2.3971    5.2500    0.0000 C   0  0  0  0  0  0  0  0  0  0  0  0
    1.6471    6.5490    0.0000 C   0  0  0  0  0  0  0  0  0  0  0  0
    1.6471    3.9510    0.0000 C   0  0  0  0  0  0  0  0  0  0  0  0
  1  2  2  0
  2  3  2  0
  3  4  1  0
  4  5  1  0
  5  6  2  0
  6  7  2  0
  5  8  1  0
  8  9  1  0
  9 10  2  3
 10 11  1  0
 11 12  2  0
 11 13  1  0
 13 14  2  0
  8 15  1  0
 15 16  1  0
 16 17  2  0
 17 18  2  0
 16 19  1  0
 19 20  2  3
 20 21  1  0
 20 22  1  0
 22 23  1  0
 23 24  1  0
 24 25  2  0
 23 26  2  3
 26 27  1  0
 27 28  1  0
 27 29  1  0
 29 30  2  0
 30 31  2  0
 29 32  1  0
 32 33  1  0
 32 34  2  3
 34 35  1  0
 35 36  2  0
 35 37  1  0
  8 38  1  0
 38 39  1  0
 38 40  1  0
M  END
