
     RDKit          2D

 40 39  0  0  0  0  0  0  0  0999 V2000
    0.0000    0.0000    0.0000 C   0  0  0  0  0  0  0  0  0  0  0  0
    1.2990    0.7500    0.0000 C   0  0  0  0  0  0  0  0  0  0  0  0
    2.5981    1.5000    0.0000 C   0  0  0  0  0  0  0  0  0  0  0  0
    3.8971    2.2500    0.0000 C   0  0  0  0  0  0  0  0  0  0  0  0
    5.1962    1.5000    0.0000 C   0  0  0  0  0  0  0  0  0  0  0  0
    3.8971    3.7500    0.0000 C   0  0  0  0  0  0  0  0  0  0  0  0
    5.1962    4.5000    0.0000 C   0  0  0  0  0  0  0  0  0  0  0  0
    5.1962    6.0000    0.0000 C   0  0  0  0  0  0  0  0  0  0  0  0
    5.1962    7.5000    0.0000 C   0  0  0  0  0  0  0  0  0  0  0  0
    6.6962    6.0000    0.0000 C   0  0  0  0  0  0  0  0  0  0  0  0
    7.4462    7.2990    0.0000 C   0  0  0  0  0  0  0  0  0  0  0  0
    8.1962    8.5981    0.0000 C   0  0  0  0  0  0  0  0  0  0  0  0
    3.6962    6.0000    0.0000 C   0  0  0  0  0  0  0  0  0  0  0  0
    2.9462    7.2990    0.0000 C   0  0  0  0  0  0  0  0  0  0  0  0
    3.6962    8.5981    0.0000 C   0  0  0  0  0  0  0  0  0  0  0  0
    4.4462    9.8971    0.0000 C   0  0  0  0  0  0  0  0  0  0  0  0
    5.9462    9.8971    0.0000 C   0  0  0  0  0  0  0  0  0  0  0  0
    1.4462    7.2990    0.0000 C   0  0  0  0  0  0  0  0  0  0  0  0
    0.6962    8.5981    0.0000 C   0  0  0  0  0  0  0  0  0  0  0  0
   -0.8038    8.5981    0.0000 C   0  0  0  0  0  0  0  0  0  0  0  0
   -1.5538    7.2990    0.0000 C   0  0  0  0  0  0  0  0  0  0  0  0
   -3.0538    7.2990    0.0000 C   0  0  0  0  0  0  0  0  0  0  0  0
   -3.8038    6.0000    0.0000 C   0  0  0  0  0  0  0  0  0  0  0  0
   -4.5538    4.7010    0.0000 C   0  0  0  0  0  0  0  0  0  0  0  0
   -3.8038    3.4019    0.0000 C   0  0  0  0  0  0  0  0  0  0  0  0
   -2.3038    3.4019    0.0000 C   0  0  0  0  0  0  0  0  0  0  0  0
   -0.8038    3.4019    0.0000 C   0  0  0  0  0  0  0  0  0  0  0  0
    0.6962    3.4019    0.0000 C   0  0  0  0  0  0  0  0  0  0  0  0
   -4.5538    2.1029    0.0000 C   0  0  0  0  0  0  0  0  0  0  0  0
   -3.8038    0.8038    0.0000 C   0  0  0  0  0  0  0  0  0  0  0  0
   -2.5048    1.5538    0.0000 C   0  0  0  0  0  0  0  0  0  0  0  0
   -5.1029    0.0538    0.0000 C   0  0  0  0  0  0  0  0  0  0  0  0
   -3.0538   -0.4952    0.0000 C   0  0  0  0  0  0  0  0  0  0  0  0
   -3.8038   -1.7942    0.0000 C   0  0  0  0  0  0  0  0  0  0  0  0
   -3.0538   -3.0933    0.0000 C   0  0  0  0  0  0  0  0  0  0  0  0
   -5.3038   -1.7942    0.0000 C   0  0  0  0  0  0  0  0  0  0  0  0
   -6.0538   -3.0933    0.0000 C   0  0  0  0  0  0  0  0  0  0  0  0
   -1.5538    9.8971    0.0000 C   0  0  0  0  0  0  0  0  0  0  0  0
   -3.0538    9.8971    0.0000 C   0  0  0  0  0  0  0  0  0  0  0  0
   -3.8038   11.1962    0.0000 C   0  0  0  0  0  0  0  0  0  0  0  0
  1  2  2  0
  2  3  2  0
  3  4  2  0
  4  5  1  0
  4  6  1  0
  6  7  1  0
  7  8  1  0
  8  9  1  0
  8 10  1  0
 10 11  2  0
 11 12  2  0
  8 13  1  0
 13 14  1  0
 14 15  2  0
 15 16  2  0
 16 17  1  0
 14 18  1  0
 18 19  2  3
 19 20  1  0
 20 21  2  3
 21 22  1  0
 22 23  2  0
 23 24  2  0
 24 25  1  0
 25 26  2  0
 26 27  2  0
 27 28  2  0
 25 29  1  0
 29 30  1  0
 30 31  1  0
 30 32  1  0
 30 33  1  0
 33 34  2  3
 34 35  1  0
 34 36  1  0
 36 37  2  0
 20 38  1  0
 38 39  1  0
 39 40  1  0
M  END
