
     RDKit          2D

 35 34  0  0  0  0  0  0  0  0999 V2000
    0.0000    0.0000    0.0000 C   0  0  0  0  0  0  0  0  0  0  0  0
    1.2990    0.7500    0.0000 C   0  0  0  0  0  0  0  0  0  0  0  0
    2.5981    1.5000    0.0000 C   0  0  0  0  0  0  0  0  0  0  0  0
    2.5981    3.0000    0.0000 C   0  0  0  0  0  0  0  0  0  0  0  0
    3.8971    3.7500    0.0000 C   0  0  0  0  0  0  0  0  0  0  0  0
    3.8971    5.2500    0.0000 C   0  0  0  0  0  0  0  0  0  0  0  0
    3.8971    6.7500    0.0000 C   0  0  0  0  0  0  0  0  0  0  0  0
    2.3971    5.2500    0.0000 C   0  0  0  0  0  0  0  0  0  0  0  0
    1.6471    6.5490    0.0000 C   0  0  0  0  0  0  0  0  0  0  0  0
    1.6471    3.9510    0.0000 C   0  0  0  0  0  0  0  0  0  0  0  0
    0.1471    3.9510    0.0000 C   0  0  0  0  0  0  0  0  0  0  0  0
    5.3971    5.2500    0.0000 C   0  0  0  0  0  0  0  0  0  0  0  0
    6.1471    3.9510    0.0000 C   0  0  0  0  0  0  0  0  0  0  0  0
    7.6471    3.9510    0.0000 C   0  0  0  0  0  0  0  0  0  0  0  0
    8.3971    2.6519    0.0000 C   0  0  0  0  0  0  0  0  0  0  0  0
    6.1471    6.5490    0.0000 C   0  0  0  0  0  0  0  0  0  0  0  0
    7.6471    6.5490    0.0000 C   0  0  0  0  0  0  0  0  0  0  0  0
    8.3971    7.8481    0.0000 C   0  0  0  0  0  0  0  0  0  0  0  0
    9.8971    7.8481    0.0000 C   0  0  0  0  0  0  0  0  0  0  0  0
   10.6471    9.1471    0.0000 C   0  0  0  0  0  0  0  0  0  0  0  0
    7.6471    9.1471    0.0000 C   0  0  0  0  0  0  0  0  0  0  0  0
    8.3971   10.4462    0.0000 C   0  0  0  0  0  0  0  0  0  0  0  0
    5.3971    7.8481    0.0000 C   0  0  0  0  0  0  0  0  0  0  0  0
    6.1471    9.1471    0.0000 C   0  0  0  0  0  0  0  0  0  0  0  0
    5.3971   10.4462    0.0000 C   0  0  0  0  0  0  0  0  0  0  0  0
    6.1471   11.7452    0.0000 C   0  0  0  0  0  0  0  0  0  0  0  0
    7.6471   11.7452    0.0000 C   0  0  0  0  0  0  0  0  0  0  0  0
    5.3971   13.0442    0.0000 C   0  0  0  0  0  0  0  0  0  0  0  0
    6.1471   14.3433    0.0000 C   0  0  0  0  0  0  0  0  0  0  0  0
    5.3971   15.6423    0.0000 C   0  0  0  0  0  0  0  0  0  0  0  0
    3.8971    7.8481    0.0000 C   0  0  0  0  0  0  0  0  0  0  0  0
    3.1471    9.1471    0.0000 C   0  0  0  0  0  0  0  0  0  0  0  0
    1.6471    9.1471    0.0000 C   0  0  0  0  0  0  0  0  0  0  0  0
    0.8971   10.4462    0.0000 C   0  0  0  0  0  0  0  0  0  0  0  0
   -0.6029   10.4462    0.0000 C   0  0  0  0  0  0  0  0  0  0  0  0
  1  2  2  0
  2  3  2  0
  3  4  1  0
  4  5  2  3
  5  6  1  0
  6  7  1  0
  6  8  1  0
  8  9  2  0
  8 10  1  0
 10 11  2  0
  6 12  1  0
 12 13  2  3
 13 14  1  0
 14 15  2  0
 12 16  1  0
 16 17  1  0
 17 18  1  0
 18 19  1  0
 19 20  2  0
 18 21  1  0
 21 22  2  0
 16 23  1  0
 23 24  1  0
 24 25  2  3
 25 26  1  0
 26 27  2  0
 26 28  1  0
 28 29  1  0
 29 30  2  0
 23 31  2  3
 31 32  1  0
 32 33  1  0
 33 34  1  0
 34 35  2  0
M  END
