
     RDKit          2D

 40 39  0  0  0  0  0  0  0  0999 V2000
    0.0000    0.0000    0.0000 C   0  0  0  0  0  0  0  0  0  0  0  0
    1.2990    0.7500    0.0000 C   0  0  0  0  0  0  0  0  0  0  0  0
    2.5981    1.5000    0.0000 C   0  0  0  0  0  0  0  0  0  0  0  0
    3.8971    2.2500    0.0000 C   0  0  0  0  0  0  0  0  0  0  0  0
    5.1962    1.5000    0.0000 C   0  0  0  0  0  0  0  0  0  0  0  0
    6.4952    2.2500    0.0000 C   0  0  0  0  0  0  0  0  0  0  0  0
    5.1962    0.0000    0.0000 C   0  0  0  0  0  0  0  0  0  0  0  0
    3.8971   -0.7500    0.0000 C   0  0  0  0  0  0  0  0  0  0  0  0
    3.8971   -2.2500    0.0000 C   0  0  0  0  0  0  0  0  0  0  0  0
    3.8971   -3.7500    0.0000 C   0  0  0  0  0  0  0  0  0  0  0  0
    3.8971   -5.2500    0.0000 C   0  0  0  0  0  0  0  0  0  0  0  0
    6.4952   -0.7500    0.0000 C   0  0  0  0  0  0  0  0  0  0  0  0
    6.4952   -2.2500    0.0000 C   0  0  0  0  0  0  0  0  0  0  0  0
    7.7942   -3.0000    0.0000 C   0  0  0  0  0  0  0  0  0  0  0  0
    7.7942   -4.5000    0.0000 C   0  0  0  0  0  0  0  0  0  0  0  0
    7.7942   -6.0000    0.0000 C   0  0  0  0  0  0  0  0  0  0  0  0
    7.7942   -7.5000    0.0000 C   0  0  0  0  0  0  0  0  0  0  0  0
    8.8454   -7.8014    0.0000 C   0  0  0  0  0  0  0  0  0  0  0  0
    6.4952   -8.2500    0.0000 C   0  0  0  0  0  0  0  0  0  0  0  0
    5.7452   -6.9510    0.0000 C   0  0  0  0  0  0  0  0  0  0  0  0
    5.1962   -9.0000    0.0000 C   0  0  0  0  0  0  0  0  0  0  0  0
    3.8971   -8.2500    0.0000 C   0  0  0  0  0  0  0  0  0  0  0  0
    5.1962  -10.5000    0.0000 C   0  0  0  0  0  0  0  0  0  0  0  0
    3.8971  -11.2500    0.0000 C   0  0  0  0  0  0  0  0  0  0  0  0
    7.2452   -9.5490    0.0000 C   0  0  0  0  0  0  0  0  0  0  0  0
    6.4952  -10.8481    0.0000 C   0  0  0  0  0  0  0  0  0  0  0  0
    7.2452  -12.1471    0.0000 C   0  0  0  0  0  0  0  0  0  0  0  0
    8.7452  -12.1471    0.0000 C   0  0  0  0  0  0  0  0  0  0  0  0
   10.2452  -12.1471    0.0000 C   0  0  0  0  0  0  0  0  0  0  0  0
    6.4952  -13.4462    0.0000 C   0  0  0  0  0  0  0  0  0  0  0  0
    7.2452  -14.7452    0.0000 C   0  0  0  0  0  0  0  0  0  0  0  0
    8.7452   -9.5490    0.0000 C   0  0  0  0  0  0  0  0  0  0  0  0
    9.4952  -10.8481    0.0000 C   0  0  0  0  0  0  0  0  0  0  0  0
    9.4952   -8.2500    0.0000 C   0  0  0  0  0  0  0  0  0  0  0  0
   10.9952   -8.2500    0.0000 C   0  0  0  0  0  0  0  0  0  0  0  0
   11.7452   -6.9510    0.0000 C   0  0  0  0  0  0  0  0  0  0  0  0
   13.2452   -6.9510    0.0000 C   0  0  0  0  0  0  0  0  0  0  0  0
   13.9952   -5.6519    0.0000 C   0  0  0  0  0  0  0  0  0  0  0  0
   13.9952   -8.2500    0.0000 C   0  0  0  0  0  0  0  0  0  0  0  0
   15.4952   -8.2500    0.0000 C   0  0  0  0  0  0  0  0  0  0  0  0
  1  2  2  0
  2  3  2  0
  3  4  2  0
  4  5  1  0
  5  6  2  0
  5  7  1  0
  7  8  1  0
  8  9  2  0
  9 10  2  0
 10 11  2  0
  7 12  1  0
 12 13  1  0
 13 14  1  0
 14 15  2  0
 15 16  2  0
 16 17  2  0
 17 18  1  0
 17 19  1  0
 19 20  1  0
 19 21  1  0
 21 22  2  0
 21 23  1  0
 23 24  1  0
 19 25  1  0
 25 26  1  0
 26 27  1  0
 27 28  2  0
 28 29  2  0
 27 30  1  0
 30 31  2  0
 25 32  1  0
 32 33  2  0
 32 34  1  0
 34 35  1  0
 35 36  1  0
 36 37  1  0
 37 38  1  0
 37 39  1  0
 39 40  2  0
M  END
