
     RDKit          2D

 40 39  0  0  0  0  0  0  0  0999 V2000
    0.0000    0.0000    0.0000 C   0  0  0  0  0  0  0  0  0  0  0  0
    1.2990    0.7500    0.0000 C   0  0  0  0  0  0  0  0  0  0  0  0
    2.5981    1.5000    0.0000 C   0  0  0  0  0  0  0  0  0  0  0  0
    3.8971    2.2500    0.0000 C   0  0  0  0  0  0  0  0  0  0  0  0
    5.1962    1.5000    0.0000 C   0  0  0  0  0  0  0  0  0  0  0  0
    6.4952    2.2500    0.0000 C   0  0  0  0  0  0  0  0  0  0  0  0
    3.8971    3.7500    0.0000 C   0  0  0  0  0  0  0  0  0  0  0  0
    5.1962    4.5000    0.0000 C   0  0  0  0  0  0  0  0  0  0  0  0
    2.5981    4.5000    0.0000 C   0  0  0  0  0  0  0  0  0  0  0  0
    2.5981    6.0000    0.0000 C   0  0  0  0  0  0  0  0  0  0  0  0
    1.2990    6.7500    0.0000 C   0  0  0  0  0  0  0  0  0  0  0  0
    3.8971    6.7500    0.0000 C   0  0  0  0  0  0  0  0  0  0  0  0
    3.8971    8.2500    0.0000 C   0  0  0  0  0  0  0  0  0  0  0  0
    5.1962    9.0000    0.0000 C   0  0  0  0  0  0  0  0  0  0  0  0
    6.4952    9.7500    0.0000 C   0  0  0  0  0  0  0  0  0  0  0  0
    5.9462    7.7010    0.0000 C   0  0  0  0  0  0  0  0  0  0  0  0
    7.4462    7.7010    0.0000 C   0  0  0  0  0  0  0  0  0  0  0  0
    8.1962    6.4019    0.0000 C   0  0  0  0  0  0  0  0  0  0  0  0
    8.9462    5.1029    0.0000 C   0  0  0  0  0  0  0  0  0  0  0  0
    9.6962    3.8038    0.0000 C   0  0  0  0  0  0  0  0  0  0  0  0
   11.1962    3.8038    0.0000 C   0  0  0  0  0  0  0  0  0  0  0  0
    4.4462   10.2990    0.0000 C   0  0  0  0  0  0  0  0  0  0  0  0
    2.9462   10.2990    0.0000 C   0  0  0  0  0  0  0  0  0  0  0  0
    2.1962   11.5981    0.0000 C   0  0  0  0  0  0  0  0  0  0  0  0
    0.6962   11.5981    0.0000 C   0  0  0  0  0  0  0  0  0  0  0  0
    5.1962   11.5981    0.0000 C   0  0  0  0  0  0  0  0  0  0  0  0
    4.4462   12.8971    0.0000 C   0  0  0  0  0  0  0  0  0  0  0  0
    2.9462   12.8971    0.0000 C   0  0  0  0  0  0  0  0  0  0  0  0
    2.1962   14.1962    0.0000 C   0  0  0  0  0  0  0  0  0  0  0  0
    5.1962   14.1962    0.0000 C   0  0  0  0  0  0  0  0  0  0  0  0
    6.6962   14.1962    0.0000 C   0  0  0  0  0  0  0  0  0  0  0  0
    8.1962   14.1962    0.0000 C   0  0  0  0  0  0  0  0  0  0  0  0
    4.4462   15.4952    0.0000 C   0  0  0  0  0  0  0  0  0  0  0  0
    2.9462   15.4952    0.0000 C   0  0  0  0  0  0  0  0  0  0  0  0
    1.4462   15.4952    0.0000 C   0  0  0  0  0  0  0  0  0  0  0  0
    0.6962   14.1962    0.0000 C   0  0  0  0  0  0  0  0  0  0  0  0
    0.6962   16.7942    0.0000 C   0  0  0  0  0  0  0  0  0  0  0  0
    5.1962   16.7942    0.0000 C   0  0  0  0  0  0  0  0  0  0  0  0
    4.4462   18.0933    0.0000 C   0  0  0  0  0  0  0  0  0  0  0  0
    3.6962   19.3923    0.0000 C   0  0  0  0  0  0  0  0  0  0  0  0
  1  2  2  0
  2  3  2  0
  3  4  2  0
  4  5  1  0
  5  6  2  0
  4  7  1  0
  7  8  1  0
  7  9  2  3
  9 10  1  0
 10 11  1  0
 10 12  1  0
 12 13  1  0
 13 14  1  0
 14 15  1  0
 14 16  1  0
 16 17  1  0
 17 18  2  0
 18 19  2  0
 19 20  2  0
 20 21  1  0
 14 22  1  0
 22 23  1  0
 23 24  2  3
 24 25  1  0
 22 26  1  0
 26 27  1  0
 27 28  2  3
 28 29  1  0
 27 30  1  0
 30 31  2  0
 31 32  2  0
 30 33  1  0
 33 34  2  0
 34 35  2  0
 35 36  1  0
 35 37  1  0
 33 38  1  0
 38 39  2  0
 39 40  2  0
M  END
