
     RDKit          2D

 40 39  0  0  0  0  0  0  0  0999 V2000
    1.2990   -2.2500    0.0000 C   0  0  0  0  0  0  0  0  0  0  0  0
    2.5981   -1.5000    0.0000 C   0  0  0  0  0  0  0  0  0  0  0  0
    3.8971   -0.7500    0.0000 C   0  0  0  0  0  0  0  0  0  0  0  0
    5.1962    0.0000    0.0000 C   0  0  0  0  0  0  0  0  0  0  0  0
    5.1962    1.5000    0.0000 C   0  0  0  0  0  0  0  0  0  0  0  0
    3.8971    2.2500    0.0000 C   0  0  0  0  0  0  0  0  0  0  0  0
    3.8971    3.7500    0.0000 C   0  0  0  0  0  0  0  0  0  0  0  0
    2.5981    4.5000    0.0000 C   0  0  0  0  0  0  0  0  0  0  0  0
    2.5981    6.0000    0.0000 C   0  0  0  0  0  0  0  0  0  0  0  0
    6.4952    2.2500    0.0000 C   0  0  0  0  0  0  0  0  0  0  0  0
    6.4952    3.7500    0.0000 C   0  0  0  0  0  0  0  0  0  0  0  0
    7.7942    4.5000    0.0000 C   0  0  0  0  0  0  0  0  0  0  0  0
    7.7942    1.5000    0.0000 C   0  0  0  0  0  0  0  0  0  0  0  0
    9.0933    2.2500    0.0000 C   0  0  0  0  0  0  0  0  0  0  0  0
   10.3923    1.5000    0.0000 C   0  0  0  0  0  0  0  0  0  0  0  0
   11.1423    2.7990    0.0000 C   0  0  0  0  0  0  0  0  0  0  0  0
   12.6423    2.7990    0.0000 C   0  0  0  0  0  0  0  0  0  0  0  0
   10.3923    4.0981    0.0000 C   0  0  0  0  0  0  0  0  0  0  0  0
   11.1423    5.3971    0.0000 C   0  0  0  0  0  0  0  0  0  0  0  0
   10.3923    6.6962    0.0000 C   0  0  0  0  0  0  0  0  0  0  0  0
    9.0933    5.9462    0.0000 C   0  0  0  0  0  0  0  0  0  0  0  0
   11.6913    7.4462    0.0000 C   0  0  0  0  0  0  0  0  0  0  0  0
   11.6913    8.9462    0.0000 C   0  0  0  0  0  0  0  0  0  0  0  0
    9.6423    7.9952    0.0000 C   0  0  0  0  0  0  0  0  0  0  0  0
    8.1423    7.9952    0.0000 C   0  0  0  0  0  0  0  0  0  0  0  0
    6.6423    7.9952    0.0000 C   0  0  0  0  0  0  0  0  0  0  0  0
    5.1423    7.9952    0.0000 C   0  0  0  0  0  0  0  0  0  0  0  0
    9.6423    0.2010    0.0000 C   0  0  0  0  0  0  0  0  0  0  0  0
    8.1423    0.2010    0.0000 C   0  0  0  0  0  0  0  0  0  0  0  0
    7.3923   -1.0981    0.0000 C   0  0  0  0  0  0  0  0  0  0  0  0
   10.3923   -1.0981    0.0000 C   0  0  0  0  0  0  0  0  0  0  0  0
    9.6423   -2.3971    0.0000 C   0  0  0  0  0  0  0  0  0  0  0  0
    8.1423   -2.3971    0.0000 C   0  0  0  0  0  0  0  0  0  0  0  0
   10.3923   -3.6962    0.0000 C   0  0  0  0  0  0  0  0  0  0  0  0
    9.6423   -4.9952    0.0000 C   0  0  0  0  0  0  0  0  0  0  0  0
    8.8923   -6.2942    0.0000 C   0  0  0  0  0  0  0  0  0  0  0  0
   11.6913    0.7500    0.0000 C   0  0  0  0  0  0  0  0  0  0  0  0
   11.6913   -0.7500    0.0000 C   0  0  0  0  0  0  0  0  0  0  0  0
   12.9904    1.5000    0.0000 C   0  0  0  0  0  0  0  0  0  0  0  0
   14.2894    0.7500    0.0000 C   0  0  0  0  0  0  0  0  0  0  0  0
  1  2  2  0
  2  3  2  0
  3  4  2  0
  4  5  1  0
  5  6  1  0
  6  7  2  3
  7  8  1  0
  8  9  1  0
  5 10  1  0
 10 11  1  0
 11 12  2  0
 10 13  1  0
 13 14  1  0
 14 15  1  0
 15 16  1  0
 16 17  2  0
 16 18  1  0
 18 19  2  3
 19 20  1  0
 20 21  1  0
 20 22  1  0
 22 23  2  0
 20 24  1  0
 24 25  2  0
 25 26  2  0
 26 27  2  0
 15 28  1  0
 28 29  1  0
 29 30  2  0
 28 31  2  3
 31 32  1  0
 32 33  2  0
 32 34  1  0
 34 35  2  0
 35 36  2  0
 15 37  1  0
 37 38  1  0
 37 39  1  0
 39 40  1  0
M  END
