
     RDKit          2D

 40 39  0  0  0  0  0  0  0  0999 V2000
    2.5981    0.0000    0.0000 C   0  0  0  0  0  0  0  0  0  0  0  0
    1.2990    0.7500    0.0000 C   0  0  0  0  0  0  0  0  0  0  0  0
    0.0000    1.5000    0.0000 C   0  0  0  0  0  0  0  0  0  0  0  0
    0.0000    3.0000    0.0000 C   0  0  0  0  0  0  0  0  0  0  0  0
   -1.2990    3.7500    0.0000 C   0  0  0  0  0  0  0  0  0  0  0  0
   -1.2990    5.2500    0.0000 C   0  0  0  0  0  0  0  0  0  0  0  0
    1.2990    3.7500    0.0000 C   0  0  0  0  0  0  0  0  0  0  0  0
    2.5981    3.0000    0.0000 C   0  0  0  0  0  0  0  0  0  0  0  0
    3.8971    3.7500    0.0000 C   0  0  0  0  0  0  0  0  0  0  0  0
    5.1962    4.5000    0.0000 C   0  0  0  0  0  0  0  0  0  0  0  0
    5.1962    6.0000    0.0000 C   0  0  0  0  0  0  0  0  0  0  0  0
    6.6962    6.0000    0.0000 C   0  0  0  0  0  0  0  0  0  0  0  0
    5.1962    7.5000    0.0000 C   0  0  0  0  0  0  0  0  0  0  0  0
    6.4952    8.2500    0.0000 C   0  0  0  0  0  0  0  0  0  0  0  0
    6.4952    9.7500    0.0000 C   0  0  0  0  0  0  0  0  0  0  0  0
    3.6962    6.0000    0.0000 C   0  0  0  0  0  0  0  0  0  0  0  0
    2.9462    4.7010    0.0000 C   0  0  0  0  0  0  0  0  0  0  0  0
    2.9462    7.2990    0.0000 C   0  0  0  0  0  0  0  0  0  0  0  0
    1.2990    5.2500    0.0000 C   0  0  0  0  0  0  0  0  0  0  0  0
    0.0000    6.0000    0.0000 C   0  0  0  0  0  0  0  0  0  0  0  0
    0.0000    7.5000    0.0000 C   0  0  0  0  0  0  0  0  0  0  0  0
   -1.2990    8.2500    0.0000 C   0  0  0  0  0  0  0  0  0  0  0  0
    1.2990    8.2500    0.0000 C   0  0  0  0  0  0  0  0  0  0  0  0
    1.2990    9.7500    0.0000 C   0  0  0  0  0  0  0  0  0  0  0  0
    2.5981   10.5000    0.0000 C   0  0  0  0  0  0  0  0  0  0  0  0
   -0.0000   10.5000    0.0000 C   0  0  0  0  0  0  0  0  0  0  0  0
   -1.2990    9.7500    0.0000 C   0  0  0  0  0  0  0  0  0  0  0  0
   -2.5981   10.5000    0.0000 C   0  0  0  0  0  0  0  0  0  0  0  0
   -2.5981   12.0000    0.0000 C   0  0  0  0  0  0  0  0  0  0  0  0
   -2.5981   13.5000    0.0000 C   0  0  0  0  0  0  0  0  0  0  0  0
   -2.5981   15.0000    0.0000 C   0  0  0  0  0  0  0  0  0  0  0  0
   -2.5981   16.5000    0.0000 C   0  0  0  0  0  0  0  0  0  0  0  0
   -1.2990   17.2500    0.0000 C   0  0  0  0  0  0  0  0  0  0  0  0
   -3.8971    9.7500    0.0000 C   0  0  0  0  0  0  0  0  0  0  0  0
   -5.1962   10.5000    0.0000 C   0  0  0  0  0  0  0  0  0  0  0  0
   -0.0000   12.0000    0.0000 C   0  0  0  0  0  0  0  0  0  0  0  0
    1.2990   12.7500    0.0000 C   0  0  0  0  0  0  0  0  0  0  0  0
    1.2990   14.2500    0.0000 C   0  0  0  0  0  0  0  0  0  0  0  0
   -1.2990   12.7500    0.0000 C   0  0  0  0  0  0  0  0  0  0  0  0
   -1.2990   14.2500    0.0000 C   0  0  0  0  0  0  0  0  0  0  0  0
  1  2  2  0
  2  3  2  0
  3  4  1  0
  4  5  1  0
  5  6  1  0
  4  7  2  3
  7  8  1  0
  8  9  2  0
  9 10  2  0
 10 11  1  0
 11 12  1  0
 11 13  1  0
 13 14  2  3
 14 15  1  0
 11 16  1  0
 16 17  1  0
 16 18  1  0
  7 19  1  0
 19 20  2  3
 20 21  1  0
 21 22  2  0
 21 23  1  0
 23 24  2  3
 24 25  1  0
 24 26  1  0
 26 27  1  0
 27 28  1  0
 28 29  2  0
 29 30  2  0
 30 31  2  0
 31 32  2  0
 32 33  1  0
 28 34  1  0
 34 35  2  0
 26 36  2  3
 36 37  1  0
 37 38  2  0
 36 39  1  0
 39 40  1  0
M  END
