
     RDKit          2D

 40 39  0  0  0  0  0  0  0  0999 V2000
    0.0000    0.0000    0.0000 C   0  0  0  0  0  0  0  0  0  0  0  0
    1.2990    0.7500    0.0000 C   0  0  0  0  0  0  0  0  0  0  0  0
    2.5981    1.5000    0.0000 C   0  0  0  0  0  0  0  0  0  0  0  0
    3.8971    2.2500    0.0000 C   0  0  0  0  0  0  0  0  0  0  0  0
    3.8971    3.7500    0.0000 C   0  0  0  0  0  0  0  0  0  0  0  0
    5.1962    4.5000    0.0000 C   0  0  0  0  0  0  0  0  0  0  0  0
    6.4952    5.2500    0.0000 C   0  0  0  0  0  0  0  0  0  0  0  0
    5.1962    1.5000    0.0000 C   0  0  0  0  0  0  0  0  0  0  0  0
    6.4952    2.2500    0.0000 C   0  0  0  0  0  0  0  0  0  0  0  0
    7.7942    1.5000    0.0000 C   0  0  0  0  0  0  0  0  0  0  0  0
    9.0933    2.2500    0.0000 C   0  0  0  0  0  0  0  0  0  0  0  0
    7.7942   -0.0000    0.0000 C   0  0  0  0  0  0  0  0  0  0  0  0
    9.0933   -0.7500    0.0000 C   0  0  0  0  0  0  0  0  0  0  0  0
   10.3923   -1.5000    0.0000 C   0  0  0  0  0  0  0  0  0  0  0  0
   11.6913   -0.7500    0.0000 C   0  0  0  0  0  0  0  0  0  0  0  0
   10.9413    0.5490    0.0000 C   0  0  0  0  0  0  0  0  0  0  0  0
   12.4413   -2.0490    0.0000 C   0  0  0  0  0  0  0  0  0  0  0  0
   11.6913   -3.3481    0.0000 C   0  0  0  0  0  0  0  0  0  0  0  0
   10.1913   -3.3481    0.0000 C   0  0  0  0  0  0  0  0  0  0  0  0
   12.4413   -4.6471    0.0000 C   0  0  0  0  0  0  0  0  0  0  0  0
   11.6913   -5.9462    0.0000 C   0  0  0  0  0  0  0  0  0  0  0  0
   13.9413   -4.6471    0.0000 C   0  0  0  0  0  0  0  0  0  0  0  0
   14.6913   -5.9462    0.0000 C   0  0  0  0  0  0  0  0  0  0  0  0
   15.4413   -7.2452    0.0000 C   0  0  0  0  0  0  0  0  0  0  0  0
   16.9413   -7.2452    0.0000 C   0  0  0  0  0  0  0  0  0  0  0  0
   17.6913   -5.9462    0.0000 C   0  0  0  0  0  0  0  0  0  0  0  0
   17.6913   -8.5442    0.0000 C   0  0  0  0  0  0  0  0  0  0  0  0
   19.1913   -8.5442    0.0000 C   0  0  0  0  0  0  0  0  0  0  0  0
   14.6913   -3.3481    0.0000 C   0  0  0  0  0  0  0  0  0  0  0  0
   16.1913   -3.3481    0.0000 C   0  0  0  0  0  0  0  0  0  0  0  0
   12.9904   -0.0000    0.0000 C   0  0  0  0  0  0  0  0  0  0  0  0
   14.2894   -0.7500    0.0000 C   0  0  0  0  0  0  0  0  0  0  0  0
   12.9904    1.5000    0.0000 C   0  0  0  0  0  0  0  0  0  0  0  0
   11.6913    2.2500    0.0000 C   0  0  0  0  0  0  0  0  0  0  0  0
   10.3923    3.0000    0.0000 C   0  0  0  0  0  0  0  0  0  0  0  0
   14.2894    2.2500    0.0000 C   0  0  0  0  0  0  0  0  0  0  0  0
   14.2894    3.7500    0.0000 C   0  0  0  0  0  0  0  0  0  0  0  0
   15.5885    4.5000    0.0000 C   0  0  0  0  0  0  0  0  0  0  0  0
   16.8875    3.7500    0.0000 C   0  0  0  0  0  0  0  0  0  0  0  0
   15.5885    6.0000    0.0000 C   0  0  0  0  0  0  0  0  0  0  0  0
  1  2  2  0
  2  3  2  0
  3  4  2  0
  4  5  1  0
  5  6  2  0
  6  7  2  0
  4  8  1  0
  8  9  1  0
  9 10  2  3
 10 11  1  0
 10 12  1  0
 12 13  2  0
 13 14  2  0
 14 15  1  0
 15 16  1  0
 15 17  1  0
 17 18  1  0
 18 19  1  0
 18 20  2  3
 20 21  1  0
 20 22  1  0
 22 23  2  0
 23 24  2  0
 24 25  1  0
 25 26  1  0
 25 27  1  0
 27 28  1  0
 22 29  1  0
 29 30  2  0
 15 31  1  0
 31 32  2  0
 31 33  1  0
 33 34  2  0
 34 35  2  0
 33 36  1  0
 36 37  1  0
 37 38  1  0
 38 39  2  0
 38 40  1  0
M  END
