
     RDKit          2D

 38 37  0  0  0  0  0  0  0  0999 V2000
    0.0000    0.0000    0.0000 C   0  0  0  0  0  0  0  0  0  0  0  0
    1.2990    0.7500    0.0000 C   0  0  0  0  0  0  0  0  0  0  0  0
    2.5981    1.5000    0.0000 C   0  0  0  0  0  0  0  0  0  0  0  0
    2.5981    3.0000    0.0000 C   0  0  0  0  0  0  0  0  0  0  0  0
    3.8971    3.7500    0.0000 C   0  0  0  0  0  0  0  0  0  0  0  0
    5.1962    4.5000    0.0000 C   0  0  0  0  0  0  0  0  0  0  0  0
    4.6471    2.4510    0.0000 C   0  0  0  0  0  0  0  0  0  0  0  0
    6.1471    2.4510    0.0000 C   0  0  0  0  0  0  0  0  0  0  0  0
    6.8971    3.7500    0.0000 C   0  0  0  0  0  0  0  0  0  0  0  0
    6.8971    1.1519    0.0000 C   0  0  0  0  0  0  0  0  0  0  0  0
    8.3971    1.1519    0.0000 C   0  0  0  0  0  0  0  0  0  0  0  0
    9.1471   -0.1471    0.0000 C   0  0  0  0  0  0  0  0  0  0  0  0
    9.8971   -1.4462    0.0000 C   0  0  0  0  0  0  0  0  0  0  0  0
    9.1471   -2.7452    0.0000 C   0  0  0  0  0  0  0  0  0  0  0  0
    9.8971   -4.0442    0.0000 C   0  0  0  0  0  0  0  0  0  0  0  0
    9.1471   -5.3433    0.0000 C   0  0  0  0  0  0  0  0  0  0  0  0
    9.8971   -6.6423    0.0000 C   0  0  0  0  0  0  0  0  0  0  0  0
   11.3971   -4.0442    0.0000 C   0  0  0  0  0  0  0  0  0  0  0  0
   12.1471   -2.7452    0.0000 C   0  0  0  0  0  0  0  0  0  0  0  0
   12.8971   -1.4462    0.0000 C   0  0  0  0  0  0  0  0  0  0  0  0
   12.1471   -0.1471    0.0000 C   0  0  0  0  0  0  0  0  0  0  0  0
   12.8971    1.1519    0.0000 C   0  0  0  0  0  0  0  0  0  0  0  0
   14.3971   -1.4462    0.0000 C   0  0  0  0  0  0  0  0  0  0  0  0
   15.1471   -2.7452    0.0000 C   0  0  0  0  0  0  0  0  0  0  0  0
   15.1471   -0.1471    0.0000 C   0  0  0  0  0  0  0  0  0  0  0  0
   15.8971    1.1519    0.0000 C   0  0  0  0  0  0  0  0  0  0  0  0
   12.1471   -5.3433    0.0000 C   0  0  0  0  0  0  0  0  0  0  0  0
   13.6471   -5.3433    0.0000 C   0  0  0  0  0  0  0  0  0  0  0  0
   14.3971   -6.6423    0.0000 C   0  0  0  0  0  0  0  0  0  0  0  0
   13.6471   -7.9413    0.0000 C   0  0  0  0  0  0  0  0  0  0  0  0
   12.8971   -9.2404    0.0000 C   0  0  0  0  0  0  0  0  0  0  0  0
   15.8971   -6.6423    0.0000 C   0  0  0  0  0  0  0  0  0  0  0  0
   16.6471   -7.9413    0.0000 C   0  0  0  0  0  0  0  0  0  0  0  0
   18.1471   -7.9413    0.0000 C   0  0  0  0  0  0  0  0  0  0  0  0
   18.8971   -9.2404    0.0000 C   0  0  0  0  0  0  0  0  0  0  0  0
    3.1471    5.0490    0.0000 C   0  0  0  0  0  0  0  0  0  0  0  0
    1.6471    5.0490    0.0000 C   0  0  0  0  0  0  0  0  0  0  0  0
    3.8971    6.3481    0.0000 C   0  0  0  0  0  0  0  0  0  0  0  0
  1  2  2  0
  2  3  2  0
  3  4  1  0
  4  5  1  0
  5  6  1  0
  5  7  1  0
  7  8  1  0
  8  9  2  0
  8 10  1  0
 10 11  1  0
 11 12  2  0
 12 13  2  0
 13 14  1  0
 14 15  1  0
 15 16  2  3
 16 17  1  0
 15 18  1  0
 18 19  2  0
 19 20  2  0
 20 21  1  0
 21 22  2  0
 20 23  1  0
 23 24  1  0
 23 25  2  0
 25 26  2  0
 18 27  1  0
 27 28  1  0
 28 29  1  0
 29 30  2  0
 30 31  2  0
 29 32  1  0
 32 33  1  0
 33 34  2  3
 34 35  1  0
  5 36  1  0
 36 37  2  0
 36 38  1  0
M  END
