
     RDKit          2D

 40 39  0  0  0  0  0  0  0  0999 V2000
    5.8923    0.8038    0.0000 C   0  0  0  0  0  0  0  0  0  0  0  0
    4.5933    0.0538    0.0000 C   0  0  0  0  0  0  0  0  0  0  0  0
    3.2942   -0.6962    0.0000 C   0  0  0  0  0  0  0  0  0  0  0  0
    1.9952    0.0538    0.0000 C   0  0  0  0  0  0  0  0  0  0  0  0
    0.6962   -0.6962    0.0000 C   0  0  0  0  0  0  0  0  0  0  0  0
   -0.6029    0.0538    0.0000 C   0  0  0  0  0  0  0  0  0  0  0  0
   -1.3529   -1.2452    0.0000 C   0  0  0  0  0  0  0  0  0  0  0  0
   -2.8529   -1.2452    0.0000 C   0  0  0  0  0  0  0  0  0  0  0  0
   -1.9019    0.8038    0.0000 C   0  0  0  0  0  0  0  0  0  0  0  0
   -3.2010    0.0538    0.0000 C   0  0  0  0  0  0  0  0  0  0  0  0
   -4.5000   -0.6962    0.0000 C   0  0  0  0  0  0  0  0  0  0  0  0
   -4.5000   -2.1962    0.0000 C   0  0  0  0  0  0  0  0  0  0  0  0
    0.1471    1.3529    0.0000 C   0  0  0  0  0  0  0  0  0  0  0  0
    1.6471    1.3529    0.0000 C   0  0  0  0  0  0  0  0  0  0  0  0
   -0.6029    2.6519    0.0000 C   0  0  0  0  0  0  0  0  0  0  0  0
    0.1471    3.9510    0.0000 C   0  0  0  0  0  0  0  0  0  0  0  0
    1.6471    3.9510    0.0000 C   0  0  0  0  0  0  0  0  0  0  0  0
   -0.6029    5.2500    0.0000 C   0  0  0  0  0  0  0  0  0  0  0  0
    0.1471    6.5490    0.0000 C   0  0  0  0  0  0  0  0  0  0  0  0
    0.8971    7.8481    0.0000 C   0  0  0  0  0  0  0  0  0  0  0  0
    2.3971    7.8481    0.0000 C   0  0  0  0  0  0  0  0  0  0  0  0
    0.1471    9.1471    0.0000 C   0  0  0  0  0  0  0  0  0  0  0  0
    0.8971   10.4462    0.0000 C   0  0  0  0  0  0  0  0  0  0  0  0
   -1.3529    9.1471    0.0000 C   0  0  0  0  0  0  0  0  0  0  0  0
   -2.1029   10.4462    0.0000 C   0  0  0  0  0  0  0  0  0  0  0  0
   -3.6029   10.4462    0.0000 C   0  0  0  0  0  0  0  0  0  0  0  0
   -2.1029    7.8481    0.0000 C   0  0  0  0  0  0  0  0  0  0  0  0
   -3.6029    7.8481    0.0000 C   0  0  0  0  0  0  0  0  0  0  0  0
   -4.3529    6.5490    0.0000 C   0  0  0  0  0  0  0  0  0  0  0  0
   -5.1029    5.2500    0.0000 C   0  0  0  0  0  0  0  0  0  0  0  0
   -5.8529    3.9510    0.0000 C   0  0  0  0  0  0  0  0  0  0  0  0
   -7.3529    3.9510    0.0000 C   0  0  0  0  0  0  0  0  0  0  0  0
   -8.1029    5.2500    0.0000 C   0  0  0  0  0  0  0  0  0  0  0  0
   -8.8529    6.5490    0.0000 C   0  0  0  0  0  0  0  0  0  0  0  0
   -8.1029    2.6519    0.0000 C   0  0  0  0  0  0  0  0  0  0  0  0
   -9.6029    2.6519    0.0000 C   0  0  0  0  0  0  0  0  0  0  0  0
  -10.3529    1.3529    0.0000 C   0  0  0  0  0  0  0  0  0  0  0  0
   -2.1029    5.2500    0.0000 C   0  0  0  0  0  0  0  0  0  0  0  0
   -2.8529    3.9510    0.0000 C   0  0  0  0  0  0  0  0  0  0  0  0
   -4.3529    3.9510    0.0000 C   0  0  0  0  0  0  0  0  0  0  0  0
  1  2  2  0
  2  3  2  0
  3  4  1  0
  4  5  2  3
  5  6  1  0
  6  7  1  0
  7  8  2  0
  6  9  1  0
  9 10  2  0
 10 11  2  0
 11 12  1  0
  6 13  1  0
 13 14  1  0
 13 15  1  0
 15 16  1  0
 16 17  1  0
 16 18  1  0
 18 19  2  0
 19 20  2  0
 20 21  1  0
 20 22  1  0
 22 23  2  0
 22 24  1  0
 24 25  1  0
 25 26  1  0
 24 27  1  0
 27 28  1  0
 28 29  2  0
 29 30  2  0
 30 31  2  0
 31 32  1  0
 32 33  2  0
 33 34  2  0
 32 35  1  0
 35 36  1  0
 36 37  2  0
 18 38  1  0
 38 39  1  0
 39 40  2  0
M  END
