
     RDKit          2D

 40 39  0  0  0  0  0  0  0  0999 V2000
    0.0000    0.0000    0.0000 C   0  0  0  0  0  0  0  0  0  0  0  0
    1.2990    0.7500    0.0000 C   0  0  0  0  0  0  0  0  0  0  0  0
    2.5981    1.5000    0.0000 C   0  0  0  0  0  0  0  0  0  0  0  0
    2.5981    3.0000    0.0000 C   0  0  0  0  0  0  0  0  0  0  0  0
    3.8971    3.7500    0.0000 C   0  0  0  0  0  0  0  0  0  0  0  0
    3.8971    5.2500    0.0000 C   0  0  0  0  0  0  0  0  0  0  0  0
    5.1962    6.0000    0.0000 C   0  0  0  0  0  0  0  0  0  0  0  0
    5.1962    7.5000    0.0000 C   0  0  0  0  0  0  0  0  0  0  0  0
    2.5981    6.0000    0.0000 C   0  0  0  0  0  0  0  0  0  0  0  0
    2.5981    7.5000    0.0000 C   0  0  0  0  0  0  0  0  0  0  0  0
    1.2990    8.2500    0.0000 C   0  0  0  0  0  0  0  0  0  0  0  0
    1.2990    9.7500    0.0000 C   0  0  0  0  0  0  0  0  0  0  0  0
    1.2990   11.2500    0.0000 C   0  0  0  0  0  0  0  0  0  0  0  0
    2.5981   12.0000    0.0000 C   0  0  0  0  0  0  0  0  0  0  0  0
    2.5981   13.5000    0.0000 C   0  0  0  0  0  0  0  0  0  0  0  0
    3.8971   14.2500    0.0000 C   0  0  0  0  0  0  0  0  0  0  0  0
    3.8971   15.7500    0.0000 C   0  0  0  0  0  0  0  0  0  0  0  0
    2.7990    9.7500    0.0000 C   0  0  0  0  0  0  0  0  0  0  0  0
    3.5490   11.0490    0.0000 C   0  0  0  0  0  0  0  0  0  0  0  0
    5.0490   11.0490    0.0000 C   0  0  0  0  0  0  0  0  0  0  0  0
    3.5490    8.4510    0.0000 C   0  0  0  0  0  0  0  0  0  0  0  0
    5.0490    8.4510    0.0000 C   0  0  0  0  0  0  0  0  0  0  0  0
   -0.2010    9.7500    0.0000 C   0  0  0  0  0  0  0  0  0  0  0  0
   -0.9510   11.0490    0.0000 C   0  0  0  0  0  0  0  0  0  0  0  0
   -2.4510   11.0490    0.0000 C   0  0  0  0  0  0  0  0  0  0  0  0
   -0.9510    8.4510    0.0000 C   0  0  0  0  0  0  0  0  0  0  0  0
   -2.2500    9.2010    0.0000 C   0  0  0  0  0  0  0  0  0  0  0  0
   -3.5490    8.4510    0.0000 C   0  0  0  0  0  0  0  0  0  0  0  0
   -4.9910    8.0376    0.0000 C   0  0  0  0  0  0  0  0  0  0  0  0
    0.3481    7.7010    0.0000 C   0  0  0  0  0  0  0  0  0  0  0  0
    0.3481    6.2010    0.0000 C   0  0  0  0  0  0  0  0  0  0  0  0
    0.3481    4.7010    0.0000 C   0  0  0  0  0  0  0  0  0  0  0  0
   -1.7010    7.1519    0.0000 C   0  0  0  0  0  0  0  0  0  0  0  0
   -3.2010    7.1519    0.0000 C   0  0  0  0  0  0  0  0  0  0  0  0
   -4.7010    7.1519    0.0000 C   0  0  0  0  0  0  0  0  0  0  0  0
   -5.4510    5.8529    0.0000 C   0  0  0  0  0  0  0  0  0  0  0  0
   -6.9510    5.8529    0.0000 C   0  0  0  0  0  0  0  0  0  0  0  0
   -4.7010    4.5538    0.0000 C   0  0  0  0  0  0  0  0  0  0  0  0
   -3.2010    4.5538    0.0000 C   0  0  0  0  0  0  0  0  0  0  0  0
   -5.4510    3.2548    0.0000 C   0  0  0  0  0  0  0  0  0  0  0  0
  1  2  2  0
  2  3  2  0
  3  4  1  0
  4  5  1  0
  5  6  1  0
  6  7  1  0
  7  8  2  0
  6  9  2  3
  9 10  1  0
 10 11  2  3
 11 12  1  0
 12 13  1  0
 13 14  1  0
 14 15  1  0
 15 16  1  0
 16 17  1  0
 12 18  1  0
 18 19  1  0
 19 20  2  0
 18 21  2  3
 21 22  1  0
 12 23  1  0
 23 24  2  3
 24 25  1  0
 23 26  1  0
 26 27  1  0
 27 28  2  0
 28 29  2  0
 26 30  1  0
 30 31  2  0
 31 32  2  0
 26 33  1  0
 33 34  2  0
 34 35  2  0
 35 36  1  0
 36 37  2  0
 36 38  1  0
 38 39  2  0
 38 40  1  0
M  END
