
     RDKit          2D

 40 39  0  0  0  0  0  0  0  0999 V2000
    0.0000    0.0000    0.0000 C   0  0  0  0  0  0  0  0  0  0  0  0
    1.2990    0.7500    0.0000 C   0  0  0  0  0  0  0  0  0  0  0  0
    2.5981    1.5000    0.0000 C   0  0  0  0  0  0  0  0  0  0  0  0
    2.5981    3.0000    0.0000 C   0  0  0  0  0  0  0  0  0  0  0  0
    3.8971    0.7500    0.0000 C   0  0  0  0  0  0  0  0  0  0  0  0
    3.8971   -0.7500    0.0000 C   0  0  0  0  0  0  0  0  0  0  0  0
    5.1962    1.5000    0.0000 C   0  0  0  0  0  0  0  0  0  0  0  0
    6.4952    0.7500    0.0000 C   0  0  0  0  0  0  0  0  0  0  0  0
    7.7942    1.5000    0.0000 C   0  0  0  0  0  0  0  0  0  0  0  0
    6.4952   -0.7500    0.0000 C   0  0  0  0  0  0  0  0  0  0  0  0
    5.1962   -1.5000    0.0000 C   0  0  0  0  0  0  0  0  0  0  0  0
    7.7942   -1.5000    0.0000 C   0  0  0  0  0  0  0  0  0  0  0  0
    7.7942   -3.0000    0.0000 C   0  0  0  0  0  0  0  0  0  0  0  0
    6.4952   -3.7500    0.0000 C   0  0  0  0  0  0  0  0  0  0  0  0
    6.4952   -5.2500    0.0000 C   0  0  0  0  0  0  0  0  0  0  0  0
    9.0933   -3.7500    0.0000 C   0  0  0  0  0  0  0  0  0  0  0  0
    9.0933   -5.2500    0.0000 C   0  0  0  0  0  0  0  0  0  0  0  0
   10.3923   -6.0000    0.0000 C   0  0  0  0  0  0  0  0  0  0  0  0
   10.3923   -7.5000    0.0000 C   0  0  0  0  0  0  0  0  0  0  0  0
   11.6913   -8.2500    0.0000 C   0  0  0  0  0  0  0  0  0  0  0  0
   11.6913   -9.7500    0.0000 C   0  0  0  0  0  0  0  0  0  0  0  0
   12.9904  -10.5000    0.0000 C   0  0  0  0  0  0  0  0  0  0  0  0
   14.2894   -9.7500    0.0000 C   0  0  0  0  0  0  0  0  0  0  0  0
   15.5885  -10.5000    0.0000 C   0  0  0  0  0  0  0  0  0  0  0  0
   16.8875   -9.7500    0.0000 C   0  0  0  0  0  0  0  0  0  0  0  0
   12.9904  -12.0000    0.0000 C   0  0  0  0  0  0  0  0  0  0  0  0
   14.2894  -12.7500    0.0000 C   0  0  0  0  0  0  0  0  0  0  0  0
   14.2894  -14.2500    0.0000 C   0  0  0  0  0  0  0  0  0  0  0  0
   15.5885  -15.0000    0.0000 C   0  0  0  0  0  0  0  0  0  0  0  0
   16.8875  -15.7500    0.0000 C   0  0  0  0  0  0  0  0  0  0  0  0
   18.1865  -15.0000    0.0000 C   0  0  0  0  0  0  0  0  0  0  0  0
   19.4856  -15.7500    0.0000 C   0  0  0  0  0  0  0  0  0  0  0  0
   20.7846  -15.0000    0.0000 C   0  0  0  0  0  0  0  0  0  0  0  0
   20.7846  -13.5000    0.0000 C   0  0  0  0  0  0  0  0  0  0  0  0
   20.7846  -12.0000    0.0000 C   0  0  0  0  0  0  0  0  0  0  0  0
   22.0836  -15.7500    0.0000 C   0  0  0  0  0  0  0  0  0  0  0  0
   22.0836  -17.2500    0.0000 C   0  0  0  0  0  0  0  0  0  0  0  0
   23.3827  -15.0000    0.0000 C   0  0  0  0  0  0  0  0  0  0  0  0
   24.6817  -15.7500    0.0000 C   0  0  0  0  0  0  0  0  0  0  0  0
   25.9808  -15.0000    0.0000 C   0  0  0  0  0  0  0  0  0  0  0  0
  1  2  2  0
  2  3  2  0
  3  4  1  0
  3  5  1  0
  5  6  2  0
  5  7  1  0
  7  8  2  3
  8  9  1  0
  8 10  1  0
 10 11  2  0
 10 12  1  0
 12 13  1  0
 13 14  2  3
 14 15  1  0
 13 16  1  0
 16 17  1  0
 17 18  2  3
 18 19  1  0
 19 20  1  0
 20 21  2  3
 21 22  1  0
 22 23  1  0
 23 24  2  3
 24 25  1  0
 22 26  1  0
 26 27  1  0
 27 28  1  0
 28 29  2  0
 29 30  2  0
 30 31  1  0
 31 32  2  3
 32 33  1  0
 33 34  2  0
 34 35  2  0
 33 36  1  0
 36 37  2  0
 36 38  1  0
 38 39  1  0
 39 40  2  0
M  END
