
     RDKit          2D

 40 39  0  0  0  0  0  0  0  0999 V2000
    0.0000    0.0000    0.0000 C   0  0  0  0  0  0  0  0  0  0  0  0
    1.2990    0.7500    0.0000 C   0  0  0  0  0  0  0  0  0  0  0  0
    2.5981    1.5000    0.0000 C   0  0  0  0  0  0  0  0  0  0  0  0
    3.8971    2.2500    0.0000 C   0  0  0  0  0  0  0  0  0  0  0  0
    5.1962    1.5000    0.0000 C   0  0  0  0  0  0  0  0  0  0  0  0
    6.4952    2.2500    0.0000 C   0  0  0  0  0  0  0  0  0  0  0  0
    3.8971    3.7500    0.0000 C   0  0  0  0  0  0  0  0  0  0  0  0
    5.1962    4.5000    0.0000 C   0  0  0  0  0  0  0  0  0  0  0  0
    2.5981    4.5000    0.0000 C   0  0  0  0  0  0  0  0  0  0  0  0
    2.5981    6.0000    0.0000 C   0  0  0  0  0  0  0  0  0  0  0  0
    1.2990    6.7500    0.0000 C   0  0  0  0  0  0  0  0  0  0  0  0
    1.2990    8.2500    0.0000 C   0  0  0  0  0  0  0  0  0  0  0  0
    3.8971    6.7500    0.0000 C   0  0  0  0  0  0  0  0  0  0  0  0
    3.8971    8.2500    0.0000 C   0  0  0  0  0  0  0  0  0  0  0  0
    3.8971    9.7500    0.0000 C   0  0  0  0  0  0  0  0  0  0  0  0
    2.5981   10.5000    0.0000 C   0  0  0  0  0  0  0  0  0  0  0  0
    2.5981   12.0000    0.0000 C   0  0  0  0  0  0  0  0  0  0  0  0
    1.2990    9.7500    0.0000 C   0  0  0  0  0  0  0  0  0  0  0  0
    0.0000   10.5000    0.0000 C   0  0  0  0  0  0  0  0  0  0  0  0
    0.0000   12.0000    0.0000 C   0  0  0  0  0  0  0  0  0  0  0  0
   -1.2990   12.7500    0.0000 C   0  0  0  0  0  0  0  0  0  0  0  0
   -2.5981   13.5000    0.0000 C   0  0  0  0  0  0  0  0  0  0  0  0
   -3.8971   12.7500    0.0000 C   0  0  0  0  0  0  0  0  0  0  0  0
   -3.1471   11.4510    0.0000 C   0  0  0  0  0  0  0  0  0  0  0  0
   -4.6471   14.0490    0.0000 C   0  0  0  0  0  0  0  0  0  0  0  0
   -6.1471   14.0490    0.0000 C   0  0  0  0  0  0  0  0  0  0  0  0
   -6.8971   15.3481    0.0000 C   0  0  0  0  0  0  0  0  0  0  0  0
   -6.1471   16.6471    0.0000 C   0  0  0  0  0  0  0  0  0  0  0  0
   -6.8971   17.9462    0.0000 C   0  0  0  0  0  0  0  0  0  0  0  0
   -7.6471   19.2452    0.0000 C   0  0  0  0  0  0  0  0  0  0  0  0
   -9.1471   19.2452    0.0000 C   0  0  0  0  0  0  0  0  0  0  0  0
   -8.3971   15.3481    0.0000 C   0  0  0  0  0  0  0  0  0  0  0  0
   -9.1471   16.6471    0.0000 C   0  0  0  0  0  0  0  0  0  0  0  0
   -5.1962   12.0000    0.0000 C   0  0  0  0  0  0  0  0  0  0  0  0
   -5.1962   10.5000    0.0000 C   0  0  0  0  0  0  0  0  0  0  0  0
   -5.1962    9.0000    0.0000 C   0  0  0  0  0  0  0  0  0  0  0  0
   -6.4952   12.7500    0.0000 C   0  0  0  0  0  0  0  0  0  0  0  0
   -7.7942   12.0000    0.0000 C   0  0  0  0  0  0  0  0  0  0  0  0
   -1.2990    9.7500    0.0000 C   0  0  0  0  0  0  0  0  0  0  0  0
   -2.5981   10.5000    0.0000 C   0  0  0  0  0  0  0  0  0  0  0  0
  1  2  2  0
  2  3  2  0
  3  4  2  0
  4  5  1  0
  5  6  1  0
  4  7  1  0
  7  8  1  0
  7  9  2  3
  9 10  1  0
 10 11  1  0
 11 12  2  0
 10 13  1  0
 13 14  2  0
 14 15  2  0
 15 16  1  0
 16 17  2  0
 16 18  1  0
 18 19  2  3
 19 20  1  0
 20 21  2  0
 21 22  2  0
 22 23  1  0
 23 24  1  0
 23 25  1  0
 25 26  1  0
 26 27  2  3
 27 28  1  0
 28 29  2  0
 29 30  2  0
 30 31  1  0
 27 32  1  0
 32 33  1  0
 23 34  1  0
 34 35  2  0
 35 36  2  0
 34 37  1  0
 37 38  1  0
 19 39  1  0
 39 40  1  0
M  END
