
     RDKit          2D

 40 39  0  0  0  0  0  0  0  0999 V2000
    0.0000    0.0000    0.0000 C   0  0  0  0  0  0  0  0  0  0  0  0
    1.2990    0.7500    0.0000 C   0  0  0  0  0  0  0  0  0  0  0  0
    2.5981    1.5000    0.0000 C   0  0  0  0  0  0  0  0  0  0  0  0
    3.8971    2.2500    0.0000 C   0  0  0  0  0  0  0  0  0  0  0  0
    5.1962    1.5000    0.0000 C   0  0  0  0  0  0  0  0  0  0  0  0
    6.4952    2.2500    0.0000 C   0  0  0  0  0  0  0  0  0  0  0  0
    7.7942    1.5000    0.0000 C   0  0  0  0  0  0  0  0  0  0  0  0
    9.0933    2.2500    0.0000 C   0  0  0  0  0  0  0  0  0  0  0  0
    5.1962    0.0000    0.0000 C   0  0  0  0  0  0  0  0  0  0  0  0
    3.6962    0.0000    0.0000 C   0  0  0  0  0  0  0  0  0  0  0  0
    6.6962   -0.0000    0.0000 C   0  0  0  0  0  0  0  0  0  0  0  0
    7.4462   -1.2990    0.0000 C   0  0  0  0  0  0  0  0  0  0  0  0
    6.6962   -2.5981    0.0000 C   0  0  0  0  0  0  0  0  0  0  0  0
    5.9462   -3.8971    0.0000 C   0  0  0  0  0  0  0  0  0  0  0  0
    8.9462   -1.2990    0.0000 C   0  0  0  0  0  0  0  0  0  0  0  0
    9.6962   -2.5981    0.0000 C   0  0  0  0  0  0  0  0  0  0  0  0
   10.4462   -3.8971    0.0000 C   0  0  0  0  0  0  0  0  0  0  0  0
    9.6962   -5.1962    0.0000 C   0  0  0  0  0  0  0  0  0  0  0  0
   11.9462   -3.8971    0.0000 C   0  0  0  0  0  0  0  0  0  0  0  0
   12.6962   -5.1962    0.0000 C   0  0  0  0  0  0  0  0  0  0  0  0
   12.6962   -2.5981    0.0000 C   0  0  0  0  0  0  0  0  0  0  0  0
   11.9462   -1.2990    0.0000 C   0  0  0  0  0  0  0  0  0  0  0  0
   12.6962   -0.0000    0.0000 C   0  0  0  0  0  0  0  0  0  0  0  0
   11.9462    1.2990    0.0000 C   0  0  0  0  0  0  0  0  0  0  0  0
   14.1962   -2.5981    0.0000 C   0  0  0  0  0  0  0  0  0  0  0  0
   14.9462   -1.2990    0.0000 C   0  0  0  0  0  0  0  0  0  0  0  0
   16.4462   -1.2990    0.0000 C   0  0  0  0  0  0  0  0  0  0  0  0
   17.1962   -0.0000    0.0000 C   0  0  0  0  0  0  0  0  0  0  0  0
   16.4462    1.2990    0.0000 C   0  0  0  0  0  0  0  0  0  0  0  0
   17.1962    2.5981    0.0000 C   0  0  0  0  0  0  0  0  0  0  0  0
   16.4462    3.8971    0.0000 C   0  0  0  0  0  0  0  0  0  0  0  0
   18.6962    2.5981    0.0000 C   0  0  0  0  0  0  0  0  0  0  0  0
   19.4462    3.8971    0.0000 C   0  0  0  0  0  0  0  0  0  0  0  0
   20.9462    3.8971    0.0000 C   0  0  0  0  0  0  0  0  0  0  0  0
   18.6962   -0.0000    0.0000 C   0  0  0  0  0  0  0  0  0  0  0  0
   19.4462    1.2990    0.0000 C   0  0  0  0  0  0  0  0  0  0  0  0
   20.9462    1.2990    0.0000 C   0  0  0  0  0  0  0  0  0  0  0  0
    5.1962   -1.5000    0.0000 C   0  0  0  0  0  0  0  0  0  0  0  0
    5.9827   -2.2597    0.0000 C   0  0  0  0  0  0  0  0  0  0  0  0
    3.8971   -2.2500    0.0000 C   0  0  0  0  0  0  0  0  0  0  0  0
  1  2  2  0
  2  3  2  0
  3  4  2  0
  4  5  1  0
  5  6  1  0
  6  7  1  0
  7  8  2  0
  5  9  1  0
  9 10  1  0
  9 11  1  0
 11 12  1  0
 12 13  2  0
 13 14  2  0
 12 15  1  0
 15 16  2  0
 16 17  2  0
 17 18  1  0
 17 19  1  0
 19 20  2  0
 19 21  1  0
 21 22  2  3
 22 23  1  0
 23 24  2  0
 21 25  1  0
 25 26  1  0
 26 27  2  3
 27 28  1  0
 28 29  1  0
 29 30  2  3
 30 31  1  0
 30 32  1  0
 32 33  2  3
 33 34  1  0
 28 35  1  0
 35 36  1  0
 36 37  2  0
  9 38  1  0
 38 39  2  0
 38 40  1  0
M  END
