
     RDKit          2D

 40 39  0  0  0  0  0  0  0  0999 V2000
    9.0933    5.2500    0.0000 C   0  0  0  0  0  0  0  0  0  0  0  0
    7.7942    4.5000    0.0000 C   0  0  0  0  0  0  0  0  0  0  0  0
    6.4952    3.7500    0.0000 C   0  0  0  0  0  0  0  0  0  0  0  0
    5.1962    4.5000    0.0000 C   0  0  0  0  0  0  0  0  0  0  0  0
    3.8971    3.7500    0.0000 C   0  0  0  0  0  0  0  0  0  0  0  0
    2.5981    3.0000    0.0000 C   0  0  0  0  0  0  0  0  0  0  0  0
    2.5981    1.5000    0.0000 C   0  0  0  0  0  0  0  0  0  0  0  0
    3.8971    0.7500    0.0000 C   0  0  0  0  0  0  0  0  0  0  0  0
    1.2990    0.7500    0.0000 C   0  0  0  0  0  0  0  0  0  0  0  0
    3.1471    5.0490    0.0000 C   0  0  0  0  0  0  0  0  0  0  0  0
    3.8971    6.3481    0.0000 C   0  0  0  0  0  0  0  0  0  0  0  0
    1.6471    5.0490    0.0000 C   0  0  0  0  0  0  0  0  0  0  0  0
    0.8971    6.3481    0.0000 C   0  0  0  0  0  0  0  0  0  0  0  0
   -0.6029    6.3481    0.0000 C   0  0  0  0  0  0  0  0  0  0  0  0
    4.6471    2.4510    0.0000 C   0  0  0  0  0  0  0  0  0  0  0  0
    3.3481    1.7010    0.0000 C   0  0  0  0  0  0  0  0  0  0  0  0
    3.3481    0.2010    0.0000 C   0  0  0  0  0  0  0  0  0  0  0  0
    2.0490   -0.5490    0.0000 C   0  0  0  0  0  0  0  0  0  0  0  0
    2.0490   -2.0490    0.0000 C   0  0  0  0  0  0  0  0  0  0  0  0
    0.7500    0.2010    0.0000 C   0  0  0  0  0  0  0  0  0  0  0  0
   -0.5490    0.9510    0.0000 C   0  0  0  0  0  0  0  0  0  0  0  0
   -0.5490    2.4510    0.0000 C   0  0  0  0  0  0  0  0  0  0  0  0
   -1.8481    3.2010    0.0000 C   0  0  0  0  0  0  0  0  0  0  0  0
   -1.8481    4.7010    0.0000 C   0  0  0  0  0  0  0  0  0  0  0  0
   -3.1471    2.4510    0.0000 C   0  0  0  0  0  0  0  0  0  0  0  0
   -4.4462    3.2010    0.0000 C   0  0  0  0  0  0  0  0  0  0  0  0
   -5.7452    2.4510    0.0000 C   0  0  0  0  0  0  0  0  0  0  0  0
    5.3971    1.1519    0.0000 C   0  0  0  0  0  0  0  0  0  0  0  0
    6.8971    1.1519    0.0000 C   0  0  0  0  0  0  0  0  0  0  0  0
    8.3971    1.1519    0.0000 C   0  0  0  0  0  0  0  0  0  0  0  0
    4.6471   -0.1471    0.0000 C   0  0  0  0  0  0  0  0  0  0  0  0
    5.3971   -1.4462    0.0000 C   0  0  0  0  0  0  0  0  0  0  0  0
    4.6471   -2.7452    0.0000 C   0  0  0  0  0  0  0  0  0  0  0  0
    5.3971   -4.0442    0.0000 C   0  0  0  0  0  0  0  0  0  0  0  0
    5.9462    3.2010    0.0000 C   0  0  0  0  0  0  0  0  0  0  0  0
    5.9462    4.7010    0.0000 C   0  0  0  0  0  0  0  0  0  0  0  0
    7.2452    5.4510    0.0000 C   0  0  0  0  0  0  0  0  0  0  0  0
    8.5442    6.2010    0.0000 C   0  0  0  0  0  0  0  0  0  0  0  0
    7.2452    2.4510    0.0000 C   0  0  0  0  0  0  0  0  0  0  0  0
    8.5442    3.2010    0.0000 C   0  0  0  0  0  0  0  0  0  0  0  0
  1  2  2  0
  2  3  2  0
  3  4  1  0
  4  5  1  0
  5  6  1  0
  6  7  1  0
  7  8  2  0
  7  9  1  0
  5 10  1  0
 10 11  2  0
 10 12  1  0
 12 13  1  0
 13 14  2  0
  5 15  1  0
 15 16  1  0
 16 17  2  3
 17 18  1  0
 18 19  1  0
 18 20  2  0
 20 21  2  0
 21 22  1  0
 22 23  2  3
 23 24  1  0
 23 25  1  0
 25 26  1  0
 26 27  2  0
 15 28  1  0
 28 29  2  0
 29 30  2  0
 28 31  1  0
 31 32  1  0
 32 33  1  0
 33 34  2  0
 15 35  1  0
 35 36  1  0
 36 37  2  0
 37 38  2  0
 35 39  2  3
 39 40  1  0
M  END
