
     RDKit          2D

 40 39  0  0  0  0  0  0  0  0999 V2000
    0.0000    0.0000    0.0000 C   0  0  0  0  0  0  0  0  0  0  0  0
    1.2990    0.7500    0.0000 C   0  0  0  0  0  0  0  0  0  0  0  0
    2.5981    1.5000    0.0000 C   0  0  0  0  0  0  0  0  0  0  0  0
    2.5981    3.0000    0.0000 C   0  0  0  0  0  0  0  0  0  0  0  0
    2.5981    4.5000    0.0000 C   0  0  0  0  0  0  0  0  0  0  0  0
    1.0981    3.0000    0.0000 C   0  0  0  0  0  0  0  0  0  0  0  0
    0.3481    4.2990    0.0000 C   0  0  0  0  0  0  0  0  0  0  0  0
   -0.4019    5.5981    0.0000 C   0  0  0  0  0  0  0  0  0  0  0  0
   -1.1519    6.8971    0.0000 C   0  0  0  0  0  0  0  0  0  0  0  0
   -2.6519    6.8971    0.0000 C   0  0  0  0  0  0  0  0  0  0  0  0
   -3.4019    8.1962    0.0000 C   0  0  0  0  0  0  0  0  0  0  0  0
   -4.9019    8.1962    0.0000 C   0  0  0  0  0  0  0  0  0  0  0  0
   -5.6519    9.4952    0.0000 C   0  0  0  0  0  0  0  0  0  0  0  0
   -4.9019   10.7942    0.0000 C   0  0  0  0  0  0  0  0  0  0  0  0
   -5.6519   12.0933    0.0000 C   0  0  0  0  0  0  0  0  0  0  0  0
   -4.9019   13.3923    0.0000 C   0  0  0  0  0  0  0  0  0  0  0  0
   -5.6519    6.8971    0.0000 C   0  0  0  0  0  0  0  0  0  0  0  0
   -4.3529    6.1471    0.0000 C   0  0  0  0  0  0  0  0  0  0  0  0
   -6.4019    5.5981    0.0000 C   0  0  0  0  0  0  0  0  0  0  0  0
   -5.6519    4.2990    0.0000 C   0  0  0  0  0  0  0  0  0  0  0  0
   -7.9019    5.5981    0.0000 C   0  0  0  0  0  0  0  0  0  0  0  0
   -6.9510    7.6471    0.0000 C   0  0  0  0  0  0  0  0  0  0  0  0
   -6.9510    9.1471    0.0000 C   0  0  0  0  0  0  0  0  0  0  0  0
   -8.2500    9.8971    0.0000 C   0  0  0  0  0  0  0  0  0  0  0  0
   -9.5490   10.6471    0.0000 C   0  0  0  0  0  0  0  0  0  0  0  0
  -10.8481   11.3971    0.0000 C   0  0  0  0  0  0  0  0  0  0  0  0
  -10.8481   12.8971    0.0000 C   0  0  0  0  0  0  0  0  0  0  0  0
  -12.1471   13.6471    0.0000 C   0  0  0  0  0  0  0  0  0  0  0  0
   -8.2500    6.8971    0.0000 C   0  0  0  0  0  0  0  0  0  0  0  0
   -9.5490    7.6471    0.0000 C   0  0  0  0  0  0  0  0  0  0  0  0
  -10.8481    6.8971    0.0000 C   0  0  0  0  0  0  0  0  0  0  0  0
    4.0981    3.0000    0.0000 C   0  0  0  0  0  0  0  0  0  0  0  0
    4.8481    4.2990    0.0000 C   0  0  0  0  0  0  0  0  0  0  0  0
    4.8481    1.7010    0.0000 C   0  0  0  0  0  0  0  0  0  0  0  0
    5.5981    0.4019    0.0000 C   0  0  0  0  0  0  0  0  0  0  0  0
    6.3481   -0.8971    0.0000 C   0  0  0  0  0  0  0  0  0  0  0  0
    7.8481   -0.8971    0.0000 C   0  0  0  0  0  0  0  0  0  0  0  0
    5.5981   -2.1962    0.0000 C   0  0  0  0  0  0  0  0  0  0  0  0
    4.0981   -2.1962    0.0000 C   0  0  0  0  0  0  0  0  0  0  0  0
    3.3481   -3.4952    0.0000 C   0  0  0  0  0  0  0  0  0  0  0  0
  1  2  2  0
  2  3  2  0
  3  4  1  0
  4  5  1  0
  4  6  1  0
  6  7  2  0
  7  8  2  0
  8  9  2  0
  9 10  1  0
 10 11  1  0
 11 12  1  0
 12 13  2  3
 13 14  1  0
 14 15  2  3
 15 16  1  0
 12 17  1  0
 17 18  1  0
 17 19  1  0
 19 20  2  0
 19 21  1  0
 17 22  1  0
 22 23  1  0
 23 24  2  0
 24 25  2  0
 25 26  2  0
 26 27  1  0
 27 28  1  0
 22 29  1  0
 29 30  2  3
 30 31  1  0
  4 32  1  0
 32 33  1  0
 32 34  2  0
 34 35  2  0
 35 36  2  0
 36 37  1  0
 36 38  1  0
 38 39  1  0
 39 40  2  0
M  END
