
     RDKit          2D

 40 39  0  0  0  0  0  0  0  0999 V2000
   10.3923   -0.0000    0.0000 C   0  0  0  0  0  0  0  0  0  0  0  0
   10.3923   -1.5000    0.0000 C   0  0  0  0  0  0  0  0  0  0  0  0
   10.3923   -3.0000    0.0000 C   0  0  0  0  0  0  0  0  0  0  0  0
   11.6913   -3.7500    0.0000 C   0  0  0  0  0  0  0  0  0  0  0  0
    9.0933   -3.7500    0.0000 C   0  0  0  0  0  0  0  0  0  0  0  0
    7.7942   -3.0000    0.0000 C   0  0  0  0  0  0  0  0  0  0  0  0
    6.4952   -3.7500    0.0000 C   0  0  0  0  0  0  0  0  0  0  0  0
    5.1962   -3.0000    0.0000 C   0  0  0  0  0  0  0  0  0  0  0  0
    5.1962   -1.5000    0.0000 C   0  0  0  0  0  0  0  0  0  0  0  0
    3.8971   -0.7500    0.0000 C   0  0  0  0  0  0  0  0  0  0  0  0
    2.5981   -1.5000    0.0000 C   0  0  0  0  0  0  0  0  0  0  0  0
    3.8971    0.7500    0.0000 C   0  0  0  0  0  0  0  0  0  0  0  0
    3.8971   -3.7500    0.0000 C   0  0  0  0  0  0  0  0  0  0  0  0
    3.8971   -5.2500    0.0000 C   0  0  0  0  0  0  0  0  0  0  0  0
    2.5981   -6.0000    0.0000 C   0  0  0  0  0  0  0  0  0  0  0  0
    5.1962   -6.0000    0.0000 C   0  0  0  0  0  0  0  0  0  0  0  0
    5.1962   -7.5000    0.0000 C   0  0  0  0  0  0  0  0  0  0  0  0
    3.6962   -7.5000    0.0000 C   0  0  0  0  0  0  0  0  0  0  0  0
    2.9462   -8.7990    0.0000 C   0  0  0  0  0  0  0  0  0  0  0  0
    2.1962  -10.0981    0.0000 C   0  0  0  0  0  0  0  0  0  0  0  0
    2.9462  -11.3971    0.0000 C   0  0  0  0  0  0  0  0  0  0  0  0
    0.6962  -10.0981    0.0000 C   0  0  0  0  0  0  0  0  0  0  0  0
   -0.0538   -8.7990    0.0000 C   0  0  0  0  0  0  0  0  0  0  0  0
   -0.8038   -7.5000    0.0000 C   0  0  0  0  0  0  0  0  0  0  0  0
   -1.5538   -6.2010    0.0000 C   0  0  0  0  0  0  0  0  0  0  0  0
   -0.8038   -4.9019    0.0000 C   0  0  0  0  0  0  0  0  0  0  0  0
   -3.0538   -6.2010    0.0000 C   0  0  0  0  0  0  0  0  0  0  0  0
   -3.8038   -4.9019    0.0000 C   0  0  0  0  0  0  0  0  0  0  0  0
   -5.3038   -4.9019    0.0000 C   0  0  0  0  0  0  0  0  0  0  0  0
    5.1962   -9.0000    0.0000 C   0  0  0  0  0  0  0  0  0  0  0  0
    3.8971   -9.7500    0.0000 C   0  0  0  0  0  0  0  0  0  0  0  0
    3.8971  -11.2500    0.0000 C   0  0  0  0  0  0  0  0  0  0  0  0
    6.6962   -7.5000    0.0000 C   0  0  0  0  0  0  0  0  0  0  0  0
    7.4462   -6.2010    0.0000 C   0  0  0  0  0  0  0  0  0  0  0  0
    7.4462   -8.7990    0.0000 C   0  0  0  0  0  0  0  0  0  0  0  0
    8.9462   -8.7990    0.0000 C   0  0  0  0  0  0  0  0  0  0  0  0
    9.6962  -10.0981    0.0000 C   0  0  0  0  0  0  0  0  0  0  0  0
   11.1962  -10.0981    0.0000 C   0  0  0  0  0  0  0  0  0  0  0  0
    6.6962  -10.0981    0.0000 C   0  0  0  0  0  0  0  0  0  0  0  0
    7.4462  -11.3971    0.0000 C   0  0  0  0  0  0  0  0  0  0  0  0
  1  2  2  0
  2  3  2  0
  3  4  1  0
  3  5  1  0
  5  6  1  0
  6  7  2  3
  7  8  1  0
  8  9  2  3
  9 10  1  0
 10 11  2  0
 10 12  1  0
  8 13  1  0
 13 14  1  0
 14 15  2  0
 14 16  1  0
 16 17  1  0
 17 18  1  0
 18 19  2  0
 19 20  2  0
 20 21  1  0
 20 22  1  0
 22 23  2  0
 23 24  2  0
 24 25  2  0
 25 26  1  0
 25 27  1  0
 27 28  1  0
 28 29  2  0
 17 30  1  0
 30 31  2  3
 31 32  1  0
 17 33  1  0
 33 34  2  0
 33 35  1  0
 35 36  1  0
 36 37  2  3
 37 38  1  0
 35 39  2  3
 39 40  1  0
M  END
