
     RDKit          2D

 38 37  0  0  0  0  0  0  0  0999 V2000
    1.6471    8.0490    0.0000 C   0  0  0  0  0  0  0  0  0  0  0  0
    2.9462    7.2990    0.0000 C   0  0  0  0  0  0  0  0  0  0  0  0
    4.2452    6.5490    0.0000 C   0  0  0  0  0  0  0  0  0  0  0  0
    5.5442    5.7990    0.0000 C   0  0  0  0  0  0  0  0  0  0  0  0
    5.5442    4.2990    0.0000 C   0  0  0  0  0  0  0  0  0  0  0  0
    6.8433    3.5490    0.0000 C   0  0  0  0  0  0  0  0  0  0  0  0
    6.8433    2.0490    0.0000 C   0  0  0  0  0  0  0  0  0  0  0  0
    8.1423    1.2990    0.0000 C   0  0  0  0  0  0  0  0  0  0  0  0
    5.5442    1.2990    0.0000 C   0  0  0  0  0  0  0  0  0  0  0  0
    4.7942    2.5981    0.0000 C   0  0  0  0  0  0  0  0  0  0  0  0
    4.2452    0.5490    0.0000 C   0  0  0  0  0  0  0  0  0  0  0  0
    2.9462    1.2990    0.0000 C   0  0  0  0  0  0  0  0  0  0  0  0
    1.6471    2.0490    0.0000 C   0  0  0  0  0  0  0  0  0  0  0  0
    6.2942   -0.0000    0.0000 C   0  0  0  0  0  0  0  0  0  0  0  0
    7.7942   -0.0000    0.0000 C   0  0  0  0  0  0  0  0  0  0  0  0
    8.5442   -1.2990    0.0000 C   0  0  0  0  0  0  0  0  0  0  0  0
    5.5442   -1.2990    0.0000 C   0  0  0  0  0  0  0  0  0  0  0  0
    4.0442   -1.2990    0.0000 C   0  0  0  0  0  0  0  0  0  0  0  0
    3.2942   -2.5981    0.0000 C   0  0  0  0  0  0  0  0  0  0  0  0
    1.7942   -2.5981    0.0000 C   0  0  0  0  0  0  0  0  0  0  0  0
    1.0442   -3.8971    0.0000 C   0  0  0  0  0  0  0  0  0  0  0  0
   -0.4558   -3.8971    0.0000 C   0  0  0  0  0  0  0  0  0  0  0  0
    1.7942   -5.1962    0.0000 C   0  0  0  0  0  0  0  0  0  0  0  0
    3.2942   -5.1962    0.0000 C   0  0  0  0  0  0  0  0  0  0  0  0
    4.7942   -5.1962    0.0000 C   0  0  0  0  0  0  0  0  0  0  0  0
    5.5442   -3.8971    0.0000 C   0  0  0  0  0  0  0  0  0  0  0  0
    5.5442   -6.4952    0.0000 C   0  0  0  0  0  0  0  0  0  0  0  0
    4.7942   -7.7942    0.0000 C   0  0  0  0  0  0  0  0  0  0  0  0
    7.0442   -6.4952    0.0000 C   0  0  0  0  0  0  0  0  0  0  0  0
    7.7942   -7.7942    0.0000 C   0  0  0  0  0  0  0  0  0  0  0  0
    1.0442   -6.4952    0.0000 C   0  0  0  0  0  0  0  0  0  0  0  0
    1.7942   -7.7942    0.0000 C   0  0  0  0  0  0  0  0  0  0  0  0
    3.2942   -0.0000    0.0000 C   0  0  0  0  0  0  0  0  0  0  0  0
    1.7942    0.0000    0.0000 C   0  0  0  0  0  0  0  0  0  0  0  0
    0.2942    0.0000    0.0000 C   0  0  0  0  0  0  0  0  0  0  0  0
   -1.2058    0.0000    0.0000 C   0  0  0  0  0  0  0  0  0  0  0  0
    4.0442    1.2990    0.0000 C   0  0  0  0  0  0  0  0  0  0  0  0
    3.2942    2.5981    0.0000 C   0  0  0  0  0  0  0  0  0  0  0  0
  1  2  2  0
  2  3  2  0
  3  4  2  0
  4  5  1  0
  5  6  2  3
  6  7  1  0
  7  8  2  0
  7  9  1  0
  9 10  1  0
  9 11  1  0
 11 12  2  0
 12 13  2  0
  9 14  1  0
 14 15  1  0
 15 16  2  0
 14 17  1  0
 17 18  1  0
 18 19  1  0
 19 20  1  0
 20 21  1  0
 21 22  1  0
 21 23  1  0
 23 24  2  0
 24 25  2  0
 25 26  1  0
 25 27  1  0
 27 28  1  0
 27 29  2  3
 29 30  1  0
 23 31  1  0
 31 32  2  0
 18 33  1  0
 33 34  2  0
 34 35  2  0
 35 36  2  0
 33 37  1  0
 37 38  1  0
M  END
