
     RDKit          2D

 40 39  0  0  0  0  0  0  0  0999 V2000
    6.4952   11.2500    0.0000 C   0  0  0  0  0  0  0  0  0  0  0  0
    6.4952    9.7500    0.0000 C   0  0  0  0  0  0  0  0  0  0  0  0
    6.4952    8.2500    0.0000 C   0  0  0  0  0  0  0  0  0  0  0  0
    5.1962    7.5000    0.0000 C   0  0  0  0  0  0  0  0  0  0  0  0
    5.1962    6.0000    0.0000 C   0  0  0  0  0  0  0  0  0  0  0  0
    3.8971    5.2500    0.0000 C   0  0  0  0  0  0  0  0  0  0  0  0
    6.4952    5.2500    0.0000 C   0  0  0  0  0  0  0  0  0  0  0  0
    6.4952    3.7500    0.0000 C   0  0  0  0  0  0  0  0  0  0  0  0
    5.1962    3.0000    0.0000 C   0  0  0  0  0  0  0  0  0  0  0  0
    5.1962    1.5000    0.0000 C   0  0  0  0  0  0  0  0  0  0  0  0
    3.8971    0.7500    0.0000 C   0  0  0  0  0  0  0  0  0  0  0  0
    6.4952    0.7500    0.0000 C   0  0  0  0  0  0  0  0  0  0  0  0
    6.4952   -0.7500    0.0000 C   0  0  0  0  0  0  0  0  0  0  0  0
    7.7942    3.0000    0.0000 C   0  0  0  0  0  0  0  0  0  0  0  0
    9.0933    3.7500    0.0000 C   0  0  0  0  0  0  0  0  0  0  0  0
   10.3923    4.5000    0.0000 C   0  0  0  0  0  0  0  0  0  0  0  0
   11.6913    3.7500    0.0000 C   0  0  0  0  0  0  0  0  0  0  0  0
    9.8433    2.4510    0.0000 C   0  0  0  0  0  0  0  0  0  0  0  0
    9.0933    1.1519    0.0000 C   0  0  0  0  0  0  0  0  0  0  0  0
    8.3433   -0.1471    0.0000 C   0  0  0  0  0  0  0  0  0  0  0  0
   11.3433    2.4510    0.0000 C   0  0  0  0  0  0  0  0  0  0  0  0
   12.0933    1.1519    0.0000 C   0  0  0  0  0  0  0  0  0  0  0  0
   13.5933    1.1519    0.0000 C   0  0  0  0  0  0  0  0  0  0  0  0
   14.3433   -0.1471    0.0000 C   0  0  0  0  0  0  0  0  0  0  0  0
   14.3433    2.4510    0.0000 C   0  0  0  0  0  0  0  0  0  0  0  0
   15.8433    2.4510    0.0000 C   0  0  0  0  0  0  0  0  0  0  0  0
   16.5933    3.7500    0.0000 C   0  0  0  0  0  0  0  0  0  0  0  0
   18.0933    3.7500    0.0000 C   0  0  0  0  0  0  0  0  0  0  0  0
   15.8433    5.0490    0.0000 C   0  0  0  0  0  0  0  0  0  0  0  0
   15.0933    6.3481    0.0000 C   0  0  0  0  0  0  0  0  0  0  0  0
    8.3433    5.0490    0.0000 C   0  0  0  0  0  0  0  0  0  0  0  0
    7.0442    4.2990    0.0000 C   0  0  0  0  0  0  0  0  0  0  0  0
    9.6423    5.7990    0.0000 C   0  0  0  0  0  0  0  0  0  0  0  0
    7.5933    6.3481    0.0000 C   0  0  0  0  0  0  0  0  0  0  0  0
    6.0933    6.3481    0.0000 C   0  0  0  0  0  0  0  0  0  0  0  0
    3.8971    8.2500    0.0000 C   0  0  0  0  0  0  0  0  0  0  0  0
    2.5981    7.5000    0.0000 C   0  0  0  0  0  0  0  0  0  0  0  0
    3.8971    9.7500    0.0000 C   0  0  0  0  0  0  0  0  0  0  0  0
    2.5981   10.5000    0.0000 C   0  0  0  0  0  0  0  0  0  0  0  0
    2.5981   12.0000    0.0000 C   0  0  0  0  0  0  0  0  0  0  0  0
  1  2  2  0
  2  3  2  0
  3  4  1  0
  4  5  1  0
  5  6  2  0
  5  7  1  0
  7  8  2  3
  8  9  1  0
  9 10  2  3
 10 11  1  0
 10 12  1  0
 12 13  2  0
  8 14  1  0
 14 15  1  0
 15 16  1  0
 16 17  1  0
 15 18  1  0
 18 19  2  0
 19 20  2  0
 18 21  1  0
 21 22  2  3
 22 23  1  0
 23 24  2  0
 23 25  1  0
 25 26  2  3
 26 27  1  0
 27 28  1  0
 27 29  2  0
 29 30  2  0
 15 31  1  0
 31 32  1  0
 31 33  1  0
 31 34  1  0
 34 35  2  0
  4 36  2  3
 36 37  1  0
 36 38  1  0
 38 39  2  3
 39 40  1  0
M  END
