
     RDKit          2D

 40 39  0  0  0  0  0  0  0  0999 V2000
    0.0000    0.0000    0.0000 C   0  0  0  0  0  0  0  0  0  0  0  0
    1.2990    0.7500    0.0000 C   0  0  0  0  0  0  0  0  0  0  0  0
    2.5981    1.5000    0.0000 C   0  0  0  0  0  0  0  0  0  0  0  0
    2.5981    3.0000    0.0000 C   0  0  0  0  0  0  0  0  0  0  0  0
    1.0981    3.0000    0.0000 C   0  0  0  0  0  0  0  0  0  0  0  0
    2.5981    4.5000    0.0000 C   0  0  0  0  0  0  0  0  0  0  0  0
    1.2990    5.2500    0.0000 C   0  0  0  0  0  0  0  0  0  0  0  0
    0.0000    6.0000    0.0000 C   0  0  0  0  0  0  0  0  0  0  0  0
   -1.2990    5.2500    0.0000 C   0  0  0  0  0  0  0  0  0  0  0  0
   -2.5981    6.0000    0.0000 C   0  0  0  0  0  0  0  0  0  0  0  0
   -3.8971    5.2500    0.0000 C   0  0  0  0  0  0  0  0  0  0  0  0
   -2.5981    7.5000    0.0000 C   0  0  0  0  0  0  0  0  0  0  0  0
   -3.8971    8.2500    0.0000 C   0  0  0  0  0  0  0  0  0  0  0  0
   -3.8971    9.7500    0.0000 C   0  0  0  0  0  0  0  0  0  0  0  0
    4.0981    3.0000    0.0000 C   0  0  0  0  0  0  0  0  0  0  0  0
    4.8481    4.2990    0.0000 C   0  0  0  0  0  0  0  0  0  0  0  0
    6.3481    4.2990    0.0000 C   0  0  0  0  0  0  0  0  0  0  0  0
    7.0981    5.5981    0.0000 C   0  0  0  0  0  0  0  0  0  0  0  0
    8.5981    5.5981    0.0000 C   0  0  0  0  0  0  0  0  0  0  0  0
    9.3481    6.8971    0.0000 C   0  0  0  0  0  0  0  0  0  0  0  0
    6.3481    6.8971    0.0000 C   0  0  0  0  0  0  0  0  0  0  0  0
    7.0981    8.1962    0.0000 C   0  0  0  0  0  0  0  0  0  0  0  0
    8.5981    8.1962    0.0000 C   0  0  0  0  0  0  0  0  0  0  0  0
    9.3481    9.4952    0.0000 C   0  0  0  0  0  0  0  0  0  0  0  0
   10.8481    9.4952    0.0000 C   0  0  0  0  0  0  0  0  0  0  0  0
   11.5981   10.7942    0.0000 C   0  0  0  0  0  0  0  0  0  0  0  0
   12.3481   12.0933    0.0000 C   0  0  0  0  0  0  0  0  0  0  0  0
   13.0981   13.3923    0.0000 C   0  0  0  0  0  0  0  0  0  0  0  0
   13.8481   14.6913    0.0000 C   0  0  0  0  0  0  0  0  0  0  0  0
   14.5981   15.9904    0.0000 C   0  0  0  0  0  0  0  0  0  0  0  0
   16.0981   15.9904    0.0000 C   0  0  0  0  0  0  0  0  0  0  0  0
    6.3481    9.4952    0.0000 C   0  0  0  0  0  0  0  0  0  0  0  0
    7.0981   10.7942    0.0000 C   0  0  0  0  0  0  0  0  0  0  0  0
    6.3481   12.0933    0.0000 C   0  0  0  0  0  0  0  0  0  0  0  0
    7.0981   13.3923    0.0000 C   0  0  0  0  0  0  0  0  0  0  0  0
    6.3481   14.6913    0.0000 C   0  0  0  0  0  0  0  0  0  0  0  0
    4.0981    5.5981    0.0000 C   0  0  0  0  0  0  0  0  0  0  0  0
    4.8481    6.8971    0.0000 C   0  0  0  0  0  0  0  0  0  0  0  0
    2.5981    5.5981    0.0000 C   0  0  0  0  0  0  0  0  0  0  0  0
    1.8481    6.8971    0.0000 C   0  0  0  0  0  0  0  0  0  0  0  0
  1  2  2  0
  2  3  2  0
  3  4  1  0
  4  5  1  0
  4  6  1  0
  6  7  2  0
  7  8  2  0
  8  9  1  0
  9 10  1  0
 10 11  1  0
 10 12  1  0
 12 13  1  0
 13 14  2  0
  4 15  1  0
 15 16  1  0
 16 17  1  0
 17 18  1  0
 18 19  1  0
 19 20  2  0
 18 21  1  0
 21 22  2  3
 22 23  1  0
 23 24  2  3
 24 25  1  0
 25 26  2  0
 26 27  2  0
 27 28  2  0
 28 29  2  0
 29 30  2  0
 30 31  1  0
 22 32  1  0
 32 33  1  0
 33 34  2  3
 34 35  1  0
 35 36  2  0
 16 37  1  0
 37 38  1  0
 37 39  1  0
 39 40  2  0
M  END
