
     RDKit          2D

 40 39  0  0  0  0  0  0  0  0999 V2000
    0.0000    0.0000    0.0000 C   0  0  0  0  0  0  0  0  0  0  0  0
    1.2990    0.7500    0.0000 C   0  0  0  0  0  0  0  0  0  0  0  0
    2.5981    1.5000    0.0000 C   0  0  0  0  0  0  0  0  0  0  0  0
    2.5981    3.0000    0.0000 C   0  0  0  0  0  0  0  0  0  0  0  0
    3.8971    3.7500    0.0000 C   0  0  0  0  0  0  0  0  0  0  0  0
    5.1962    4.5000    0.0000 C   0  0  0  0  0  0  0  0  0  0  0  0
    4.6471    2.4510    0.0000 C   0  0  0  0  0  0  0  0  0  0  0  0
    6.1471    2.4510    0.0000 C   0  0  0  0  0  0  0  0  0  0  0  0
    7.6471    2.4510    0.0000 C   0  0  0  0  0  0  0  0  0  0  0  0
    3.1471    5.0490    0.0000 C   0  0  0  0  0  0  0  0  0  0  0  0
    3.8971    6.3481    0.0000 C   0  0  0  0  0  0  0  0  0  0  0  0
    4.6471    7.6471    0.0000 C   0  0  0  0  0  0  0  0  0  0  0  0
    6.1471    7.6471    0.0000 C   0  0  0  0  0  0  0  0  0  0  0  0
    6.8971    8.9462    0.0000 C   0  0  0  0  0  0  0  0  0  0  0  0
    8.3971    8.9462    0.0000 C   0  0  0  0  0  0  0  0  0  0  0  0
    9.8971    8.9462    0.0000 C   0  0  0  0  0  0  0  0  0  0  0  0
   10.6471    7.6471    0.0000 C   0  0  0  0  0  0  0  0  0  0  0  0
   12.1471    7.6471    0.0000 C   0  0  0  0  0  0  0  0  0  0  0  0
   12.8971    6.3481    0.0000 C   0  0  0  0  0  0  0  0  0  0  0  0
   12.8971    8.9462    0.0000 C   0  0  0  0  0  0  0  0  0  0  0  0
   14.3971    8.9462    0.0000 C   0  0  0  0  0  0  0  0  0  0  0  0
   15.1471    7.6471    0.0000 C   0  0  0  0  0  0  0  0  0  0  0  0
   16.6471    7.6471    0.0000 C   0  0  0  0  0  0  0  0  0  0  0  0
   17.3971    6.3481    0.0000 C   0  0  0  0  0  0  0  0  0  0  0  0
   18.8971    6.3481    0.0000 C   0  0  0  0  0  0  0  0  0  0  0  0
   19.6471    5.0490    0.0000 C   0  0  0  0  0  0  0  0  0  0  0  0
   19.6471    7.6471    0.0000 C   0  0  0  0  0  0  0  0  0  0  0  0
   15.1471   10.2452    0.0000 C   0  0  0  0  0  0  0  0  0  0  0  0
   16.6471   10.2452    0.0000 C   0  0  0  0  0  0  0  0  0  0  0  0
    6.1471   10.2452    0.0000 C   0  0  0  0  0  0  0  0  0  0  0  0
    6.8971   11.5442    0.0000 C   0  0  0  0  0  0  0  0  0  0  0  0
    7.6471   12.8433    0.0000 C   0  0  0  0  0  0  0  0  0  0  0  0
    4.6471   10.2452    0.0000 C   0  0  0  0  0  0  0  0  0  0  0  0
    3.8971    8.9462    0.0000 C   0  0  0  0  0  0  0  0  0  0  0  0
    3.1471    7.6471    0.0000 C   0  0  0  0  0  0  0  0  0  0  0  0
    1.6471    7.6471    0.0000 C   0  0  0  0  0  0  0  0  0  0  0  0
    0.8971    6.3481    0.0000 C   0  0  0  0  0  0  0  0  0  0  0  0
    3.8971   11.5442    0.0000 C   0  0  0  0  0  0  0  0  0  0  0  0
    2.3971   11.5442    0.0000 C   0  0  0  0  0  0  0  0  0  0  0  0
    1.6471   12.8433    0.0000 C   0  0  0  0  0  0  0  0  0  0  0  0
  1  2  2  0
  2  3  2  0
  3  4  1  0
  4  5  1  0
  5  6  1  0
  5  7  1  0
  7  8  2  0
  8  9  2  0
  5 10  1  0
 10 11  2  0
 11 12  2  0
 12 13  1  0
 13 14  1  0
 14 15  2  0
 15 16  2  0
 16 17  1  0
 17 18  1  0
 18 19  1  0
 18 20  1  0
 20 21  1  0
 21 22  2  3
 22 23  1  0
 23 24  2  3
 24 25  1  0
 25 26  1  0
 25 27  1  0
 21 28  1  0
 28 29  1  0
 14 30  1  0
 30 31  2  0
 31 32  2  0
 30 33  1  0
 33 34  2  0
 34 35  2  0
 35 36  1  0
 36 37  2  0
 33 38  1  0
 38 39  2  3
 39 40  1  0
M  END
