
     RDKit          2D

 40 39  0  0  0  0  0  0  0  0999 V2000
    0.0000    0.0000    0.0000 C   0  0  0  0  0  0  0  0  0  0  0  0
    1.2990    0.7500    0.0000 C   0  0  0  0  0  0  0  0  0  0  0  0
    2.5981    1.5000    0.0000 C   0  0  0  0  0  0  0  0  0  0  0  0
    3.8971    2.2500    0.0000 C   0  0  0  0  0  0  0  0  0  0  0  0
    5.1962    3.0000    0.0000 C   0  0  0  0  0  0  0  0  0  0  0  0
    5.1962    4.5000    0.0000 C   0  0  0  0  0  0  0  0  0  0  0  0
    6.4952    2.2500    0.0000 C   0  0  0  0  0  0  0  0  0  0  0  0
    6.4952    0.7500    0.0000 C   0  0  0  0  0  0  0  0  0  0  0  0
    7.7942   -0.0000    0.0000 C   0  0  0  0  0  0  0  0  0  0  0  0
    9.0933   -0.7500    0.0000 C   0  0  0  0  0  0  0  0  0  0  0  0
   10.3923   -0.0000    0.0000 C   0  0  0  0  0  0  0  0  0  0  0  0
   11.6913   -0.7500    0.0000 C   0  0  0  0  0  0  0  0  0  0  0  0
   12.9904   -0.0000    0.0000 C   0  0  0  0  0  0  0  0  0  0  0  0
   14.2894   -0.7500    0.0000 C   0  0  0  0  0  0  0  0  0  0  0  0
   11.6913   -2.2500    0.0000 C   0  0  0  0  0  0  0  0  0  0  0  0
   13.1913   -2.2500    0.0000 C   0  0  0  0  0  0  0  0  0  0  0  0
   11.6913   -3.7500    0.0000 C   0  0  0  0  0  0  0  0  0  0  0  0
   10.3923   -4.5000    0.0000 C   0  0  0  0  0  0  0  0  0  0  0  0
   10.1913   -2.2500    0.0000 C   0  0  0  0  0  0  0  0  0  0  0  0
    9.4413   -3.5490    0.0000 C   0  0  0  0  0  0  0  0  0  0  0  0
    7.9413   -3.5490    0.0000 C   0  0  0  0  0  0  0  0  0  0  0  0
    7.1913   -4.8481    0.0000 C   0  0  0  0  0  0  0  0  0  0  0  0
    5.6913   -4.8481    0.0000 C   0  0  0  0  0  0  0  0  0  0  0  0
    4.9413   -6.1471    0.0000 C   0  0  0  0  0  0  0  0  0  0  0  0
    4.1913   -7.4462    0.0000 C   0  0  0  0  0  0  0  0  0  0  0  0
    3.4413   -8.7452    0.0000 C   0  0  0  0  0  0  0  0  0  0  0  0
    1.9413   -8.7452    0.0000 C   0  0  0  0  0  0  0  0  0  0  0  0
    4.1913  -10.0442    0.0000 C   0  0  0  0  0  0  0  0  0  0  0  0
    3.4413  -11.3433    0.0000 C   0  0  0  0  0  0  0  0  0  0  0  0
    5.6913  -10.0442    0.0000 C   0  0  0  0  0  0  0  0  0  0  0  0
    6.4413   -8.7452    0.0000 C   0  0  0  0  0  0  0  0  0  0  0  0
    7.9413   -8.7452    0.0000 C   0  0  0  0  0  0  0  0  0  0  0  0
    6.4413  -11.3433    0.0000 C   0  0  0  0  0  0  0  0  0  0  0  0
    7.9413  -11.3433    0.0000 C   0  0  0  0  0  0  0  0  0  0  0  0
    5.6913  -12.6423    0.0000 C   0  0  0  0  0  0  0  0  0  0  0  0
    6.4413  -13.9413    0.0000 C   0  0  0  0  0  0  0  0  0  0  0  0
    5.6913  -15.2404    0.0000 C   0  0  0  0  0  0  0  0  0  0  0  0
    7.9413  -13.9413    0.0000 C   0  0  0  0  0  0  0  0  0  0  0  0
    8.6913  -12.6423    0.0000 C   0  0  0  0  0  0  0  0  0  0  0  0
   10.1913  -12.6423    0.0000 C   0  0  0  0  0  0  0  0  0  0  0  0
  1  2  2  0
  2  3  2  0
  3  4  2  0
  4  5  2  0
  5  6  1  0
  5  7  1  0
  7  8  1  0
  8  9  2  0
  9 10  2  0
 10 11  1  0
 11 12  1  0
 12 13  1  0
 13 14  2  0
 12 15  1  0
 15 16  1  0
 15 17  1  0
 17 18  2  0
 15 19  1  0
 19 20  1  0
 20 21  2  3
 21 22  1  0
 22 23  1  0
 23 24  2  0
 24 25  2  0
 25 26  2  0
 26 27  1  0
 26 28  1  0
 28 29  1  0
 28 30  2  3
 30 31  1  0
 31 32  2  0
 30 33  1  0
 33 34  1  0
 33 35  2  3
 35 36  1  0
 36 37  1  0
 36 38  2  3
 38 39  1  0
 39 40  1  0
M  END
