
     RDKit          2D

 40 39  0  0  0  0  0  0  0  0999 V2000
    0.0000    0.0000    0.0000 C   0  0  0  0  0  0  0  0  0  0  0  0
    1.2990    0.7500    0.0000 C   0  0  0  0  0  0  0  0  0  0  0  0
    2.5981    1.5000    0.0000 C   0  0  0  0  0  0  0  0  0  0  0  0
    3.8971    2.2500    0.0000 C   0  0  0  0  0  0  0  0  0  0  0  0
    5.1962    1.5000    0.0000 C   0  0  0  0  0  0  0  0  0  0  0  0
    6.4952    2.2500    0.0000 C   0  0  0  0  0  0  0  0  0  0  0  0
    7.7942    1.5000    0.0000 C   0  0  0  0  0  0  0  0  0  0  0  0
    3.8971    3.7500    0.0000 C   0  0  0  0  0  0  0  0  0  0  0  0
    5.1962    4.5000    0.0000 C   0  0  0  0  0  0  0  0  0  0  0  0
    2.5981    4.5000    0.0000 C   0  0  0  0  0  0  0  0  0  0  0  0
    1.2990    5.2500    0.0000 C   0  0  0  0  0  0  0  0  0  0  0  0
   -0.0000    6.0000    0.0000 C   0  0  0  0  0  0  0  0  0  0  0  0
   -0.0000    7.5000    0.0000 C   0  0  0  0  0  0  0  0  0  0  0  0
   -0.0000    9.0000    0.0000 C   0  0  0  0  0  0  0  0  0  0  0  0
    1.2990    9.7500    0.0000 C   0  0  0  0  0  0  0  0  0  0  0  0
    1.2990   11.2500    0.0000 C   0  0  0  0  0  0  0  0  0  0  0  0
   -1.5000    7.5000    0.0000 C   0  0  0  0  0  0  0  0  0  0  0  0
   -2.2500    8.7990    0.0000 C   0  0  0  0  0  0  0  0  0  0  0  0
   -3.7500    8.7990    0.0000 C   0  0  0  0  0  0  0  0  0  0  0  0
   -2.2500    6.2010    0.0000 C   0  0  0  0  0  0  0  0  0  0  0  0
   -3.7500    6.2010    0.0000 C   0  0  0  0  0  0  0  0  0  0  0  0
   -4.5000    4.9019    0.0000 C   0  0  0  0  0  0  0  0  0  0  0  0
   -6.0000    4.9019    0.0000 C   0  0  0  0  0  0  0  0  0  0  0  0
   -6.7500    3.6029    0.0000 C   0  0  0  0  0  0  0  0  0  0  0  0
   -8.2500    3.6029    0.0000 C   0  0  0  0  0  0  0  0  0  0  0  0
   -6.0000    2.3038    0.0000 C   0  0  0  0  0  0  0  0  0  0  0  0
   -4.5000    2.3038    0.0000 C   0  0  0  0  0  0  0  0  0  0  0  0
   -3.0000    2.3038    0.0000 C   0  0  0  0  0  0  0  0  0  0  0  0
   -2.2500    3.6029    0.0000 C   0  0  0  0  0  0  0  0  0  0  0  0
   -6.7500    1.0048    0.0000 C   0  0  0  0  0  0  0  0  0  0  0  0
   -6.0000   -0.2942    0.0000 C   0  0  0  0  0  0  0  0  0  0  0  0
    1.5000    7.5000    0.0000 C   0  0  0  0  0  0  0  0  0  0  0  0
    2.2500    6.2010    0.0000 C   0  0  0  0  0  0  0  0  0  0  0  0
    3.7500    6.2010    0.0000 C   0  0  0  0  0  0  0  0  0  0  0  0
    2.2500    8.7990    0.0000 C   0  0  0  0  0  0  0  0  0  0  0  0
    3.7500    8.7990    0.0000 C   0  0  0  0  0  0  0  0  0  0  0  0
    4.5000   10.0981    0.0000 C   0  0  0  0  0  0  0  0  0  0  0  0
    6.0000   10.0981    0.0000 C   0  0  0  0  0  0  0  0  0  0  0  0
    6.7500   11.3971    0.0000 C   0  0  0  0  0  0  0  0  0  0  0  0
    8.2500   11.3971    0.0000 C   0  0  0  0  0  0  0  0  0  0  0  0
  1  2  2  0
  2  3  2  0
  3  4  2  0
  4  5  1  0
  5  6  1  0
  6  7  2  0
  4  8  1  0
  8  9  1  0
  8 10  2  0
 10 11  2  0
 11 12  2  0
 12 13  1  0
 13 14  1  0
 14 15  2  3
 15 16  1  0
 13 17  1  0
 17 18  1  0
 18 19  2  0
 17 20  2  3
 20 21  1  0
 21 22  2  3
 22 23  1  0
 23 24  1  0
 24 25  1  0
 24 26  1  0
 26 27  2  0
 27 28  2  0
 28 29  1  0
 26 30  1  0
 30 31  2  0
 13 32  1  0
 32 33  2  3
 33 34  1  0
 32 35  1  0
 35 36  1  0
 36 37  2  3
 37 38  1  0
 38 39  1  0
 39 40  1  0
M  END
