
     RDKit          2D

 40 39  0  0  0  0  0  0  0  0999 V2000
    2.5981    0.0000    0.0000 C   0  0  0  0  0  0  0  0  0  0  0  0
    1.2990    0.7500    0.0000 C   0  0  0  0  0  0  0  0  0  0  0  0
    0.0000    1.5000    0.0000 C   0  0  0  0  0  0  0  0  0  0  0  0
   -1.2990    0.7500    0.0000 C   0  0  0  0  0  0  0  0  0  0  0  0
   -1.2990   -0.7500    0.0000 C   0  0  0  0  0  0  0  0  0  0  0  0
    0.0000    3.0000    0.0000 C   0  0  0  0  0  0  0  0  0  0  0  0
   -1.2990    3.7500    0.0000 C   0  0  0  0  0  0  0  0  0  0  0  0
    1.2990    3.7500    0.0000 C   0  0  0  0  0  0  0  0  0  0  0  0
    1.2990    5.2500    0.0000 C   0  0  0  0  0  0  0  0  0  0  0  0
    2.5981    6.0000    0.0000 C   0  0  0  0  0  0  0  0  0  0  0  0
    2.5981    7.5000    0.0000 C   0  0  0  0  0  0  0  0  0  0  0  0
    1.2990    8.2500    0.0000 C   0  0  0  0  0  0  0  0  0  0  0  0
    3.8971    8.2500    0.0000 C   0  0  0  0  0  0  0  0  0  0  0  0
    3.8971    5.2500    0.0000 C   0  0  0  0  0  0  0  0  0  0  0  0
    5.1962    6.0000    0.0000 C   0  0  0  0  0  0  0  0  0  0  0  0
    6.4952    6.7500    0.0000 C   0  0  0  0  0  0  0  0  0  0  0  0
    7.7942    7.5000    0.0000 C   0  0  0  0  0  0  0  0  0  0  0  0
    9.0933    6.7500    0.0000 C   0  0  0  0  0  0  0  0  0  0  0  0
    3.8971    3.7500    0.0000 C   0  0  0  0  0  0  0  0  0  0  0  0
    5.1962    3.0000    0.0000 C   0  0  0  0  0  0  0  0  0  0  0  0
    0.0000    6.0000    0.0000 C   0  0  0  0  0  0  0  0  0  0  0  0
   -0.7500    4.7010    0.0000 C   0  0  0  0  0  0  0  0  0  0  0  0
   -2.2500    4.7010    0.0000 C   0  0  0  0  0  0  0  0  0  0  0  0
   -1.2990    6.7500    0.0000 C   0  0  0  0  0  0  0  0  0  0  0  0
   -2.5981    6.0000    0.0000 C   0  0  0  0  0  0  0  0  0  0  0  0
    0.7500    7.2990    0.0000 C   0  0  0  0  0  0  0  0  0  0  0  0
   -0.0000    8.5981    0.0000 C   0  0  0  0  0  0  0  0  0  0  0  0
    0.7500    9.8971    0.0000 C   0  0  0  0  0  0  0  0  0  0  0  0
   -0.0000   11.1962    0.0000 C   0  0  0  0  0  0  0  0  0  0  0  0
    2.2500    9.8971    0.0000 C   0  0  0  0  0  0  0  0  0  0  0  0
    3.0000   11.1962    0.0000 C   0  0  0  0  0  0  0  0  0  0  0  0
    4.5000   11.1962    0.0000 C   0  0  0  0  0  0  0  0  0  0  0  0
    5.2500   12.4952    0.0000 C   0  0  0  0  0  0  0  0  0  0  0  0
    6.7500   12.4952    0.0000 C   0  0  0  0  0  0  0  0  0  0  0  0
    4.5000   13.7942    0.0000 C   0  0  0  0  0  0  0  0  0  0  0  0
    5.2500   15.0933    0.0000 C   0  0  0  0  0  0  0  0  0  0  0  0
    2.2500   12.4952    0.0000 C   0  0  0  0  0  0  0  0  0  0  0  0
    3.0000   13.7942    0.0000 C   0  0  0  0  0  0  0  0  0  0  0  0
    0.7500   12.4952    0.0000 C   0  0  0  0  0  0  0  0  0  0  0  0
   -0.0000   13.7942    0.0000 C   0  0  0  0  0  0  0  0  0  0  0  0
  1  2  2  0
  2  3  2  0
  3  4  1  0
  4  5  2  0
  3  6  1  0
  6  7  1  0
  6  8  1  0
  8  9  1  0
  9 10  2  3
 10 11  1  0
 11 12  2  0
 11 13  1  0
 10 14  1  0
 14 15  2  0
 15 16  2  0
 16 17  2  0
 17 18  1  0
 14 19  1  0
 19 20  2  0
  9 21  1  0
 21 22  1  0
 22 23  2  0
 21 24  1  0
 24 25  2  0
 21 26  1  0
 26 27  1  0
 27 28  1  0
 28 29  1  0
 28 30  1  0
 30 31  1  0
 31 32  2  3
 32 33  1  0
 33 34  2  0
 33 35  1  0
 35 36  2  0
 31 37  1  0
 37 38  2  0
 37 39  1  0
 39 40  2  0
M  END
