
     RDKit          2D

 38 37  0  0  0  0  0  0  0  0999 V2000
   -0.0000   -0.0000    0.0000 C   0  0  0  0  0  0  0  0  0  0  0  0
    1.2990    0.7500    0.0000 C   0  0  0  0  0  0  0  0  0  0  0  0
    2.5981    1.5000    0.0000 C   0  0  0  0  0  0  0  0  0  0  0  0
    3.8971    2.2500    0.0000 C   0  0  0  0  0  0  0  0  0  0  0  0
    4.9761    1.2080    0.0000 C   0  0  0  0  0  0  0  0  0  0  0  0
    3.8971    3.7500    0.0000 C   0  0  0  0  0  0  0  0  0  0  0  0
    4.6706    3.5571    0.0000 C   0  0  0  0  0  0  0  0  0  0  0  0
    2.3971    3.7500    0.0000 C   0  0  0  0  0  0  0  0  0  0  0  0
    1.6471    5.0490    0.0000 C   0  0  0  0  0  0  0  0  0  0  0  0
    0.1471    5.0490    0.0000 C   0  0  0  0  0  0  0  0  0  0  0  0
    3.8971    5.2500    0.0000 C   0  0  0  0  0  0  0  0  0  0  0  0
    2.5981    6.0000    0.0000 C   0  0  0  0  0  0  0  0  0  0  0  0
    5.1962    6.0000    0.0000 C   0  0  0  0  0  0  0  0  0  0  0  0
    5.9462    4.7010    0.0000 C   0  0  0  0  0  0  0  0  0  0  0  0
    7.4462    4.7010    0.0000 C   0  0  0  0  0  0  0  0  0  0  0  0
    8.9462    4.7010    0.0000 C   0  0  0  0  0  0  0  0  0  0  0  0
    5.1962    3.4019    0.0000 C   0  0  0  0  0  0  0  0  0  0  0  0
    5.9462    2.1029    0.0000 C   0  0  0  0  0  0  0  0  0  0  0  0
    5.1962    0.8038    0.0000 C   0  0  0  0  0  0  0  0  0  0  0  0
    5.9462   -0.4952    0.0000 C   0  0  0  0  0  0  0  0  0  0  0  0
    6.6962   -1.7942    0.0000 C   0  0  0  0  0  0  0  0  0  0  0  0
    4.4462    7.2990    0.0000 C   0  0  0  0  0  0  0  0  0  0  0  0
    2.9462    7.2990    0.0000 C   0  0  0  0  0  0  0  0  0  0  0  0
    1.4462    7.2990    0.0000 C   0  0  0  0  0  0  0  0  0  0  0  0
    5.1962    8.5981    0.0000 C   0  0  0  0  0  0  0  0  0  0  0  0
    3.8971    9.3481    0.0000 C   0  0  0  0  0  0  0  0  0  0  0  0
    6.6381    8.1847    0.0000 C   0  0  0  0  0  0  0  0  0  0  0  0
    5.9462    9.8971    0.0000 C   0  0  0  0  0  0  0  0  0  0  0  0
    5.1962   11.1962    0.0000 C   0  0  0  0  0  0  0  0  0  0  0  0
    4.4462   12.4952    0.0000 C   0  0  0  0  0  0  0  0  0  0  0  0
    7.4462    9.8971    0.0000 C   0  0  0  0  0  0  0  0  0  0  0  0
    8.1962   11.1962    0.0000 C   0  0  0  0  0  0  0  0  0  0  0  0
    6.4952    6.7500    0.0000 C   0  0  0  0  0  0  0  0  0  0  0  0
    7.7942    6.0000    0.0000 C   0  0  0  0  0  0  0  0  0  0  0  0
    6.4952    8.2500    0.0000 C   0  0  0  0  0  0  0  0  0  0  0  0
    7.7942    9.0000    0.0000 C   0  0  0  0  0  0  0  0  0  0  0  0
    7.7942   10.5000    0.0000 C   0  0  0  0  0  0  0  0  0  0  0  0
    9.0933   11.2500    0.0000 C   0  0  0  0  0  0  0  0  0  0  0  0
  1  2  2  0
  2  3  2  0
  3  4  2  0
  4  5  1  0
  4  6  1  0
  6  7  1  0
  6  8  1  0
  8  9  1  0
  9 10  2  0
  6 11  1  0
 11 12  1  0
 11 13  1  0
 13 14  1  0
 14 15  2  0
 15 16  2  0
 14 17  1  0
 17 18  1  0
 18 19  1  0
 19 20  2  0
 20 21  2  0
 13 22  1  0
 22 23  2  0
 23 24  2  0
 22 25  1  0
 25 26  1  0
 25 27  1  0
 25 28  1  0
 28 29  2  0
 29 30  2  0
 28 31  1  0
 31 32  2  0
 13 33  1  0
 33 34  1  0
 33 35  1  0
 35 36  2  3
 36 37  1  0
 37 38  2  0
M  END
