
     RDKit          2D

 38 37  0  0  0  0  0  0  0  0999 V2000
    0.2201   -0.2920    0.0000 C   0  0  0  0  0  0  0  0  0  0  0  0
    1.2990    0.7500    0.0000 C   0  0  0  0  0  0  0  0  0  0  0  0
    2.5981    1.5000    0.0000 C   0  0  0  0  0  0  0  0  0  0  0  0
    2.5981    3.0000    0.0000 C   0  0  0  0  0  0  0  0  0  0  0  0
    3.8971    3.7500    0.0000 C   0  0  0  0  0  0  0  0  0  0  0  0
    3.8971    5.2500    0.0000 C   0  0  0  0  0  0  0  0  0  0  0  0
    5.1962    6.0000    0.0000 C   0  0  0  0  0  0  0  0  0  0  0  0
    1.2990    3.7500    0.0000 C   0  0  0  0  0  0  0  0  0  0  0  0
    1.2990    5.2500    0.0000 C   0  0  0  0  0  0  0  0  0  0  0  0
    2.5981    6.0000    0.0000 C   0  0  0  0  0  0  0  0  0  0  0  0
   -0.0000    6.0000    0.0000 C   0  0  0  0  0  0  0  0  0  0  0  0
   -1.2990    5.2500    0.0000 C   0  0  0  0  0  0  0  0  0  0  0  0
   -2.7410    4.8366    0.0000 C   0  0  0  0  0  0  0  0  0  0  0  0
   -0.0000    7.5000    0.0000 C   0  0  0  0  0  0  0  0  0  0  0  0
    1.2990    8.2500    0.0000 C   0  0  0  0  0  0  0  0  0  0  0  0
   -1.2990    8.2500    0.0000 C   0  0  0  0  0  0  0  0  0  0  0  0
    0.0000    3.0000    0.0000 C   0  0  0  0  0  0  0  0  0  0  0  0
   -1.2990    2.2500    0.0000 C   0  0  0  0  0  0  0  0  0  0  0  0
   -2.5981    3.0000    0.0000 C   0  0  0  0  0  0  0  0  0  0  0  0
   -3.8971    3.7500    0.0000 C   0  0  0  0  0  0  0  0  0  0  0  0
   -0.7500    4.2990    0.0000 C   0  0  0  0  0  0  0  0  0  0  0  0
   -2.2500    4.2990    0.0000 C   0  0  0  0  0  0  0  0  0  0  0  0
   -3.0000    5.5981    0.0000 C   0  0  0  0  0  0  0  0  0  0  0  0
   -4.5000    5.5981    0.0000 C   0  0  0  0  0  0  0  0  0  0  0  0
   -5.2500    4.2990    0.0000 C   0  0  0  0  0  0  0  0  0  0  0  0
   -6.7500    4.2990    0.0000 C   0  0  0  0  0  0  0  0  0  0  0  0
   -8.2500    4.2990    0.0000 C   0  0  0  0  0  0  0  0  0  0  0  0
   -9.0000    5.5981    0.0000 C   0  0  0  0  0  0  0  0  0  0  0  0
   -5.2500    6.8971    0.0000 C   0  0  0  0  0  0  0  0  0  0  0  0
   -6.7500    6.8971    0.0000 C   0  0  0  0  0  0  0  0  0  0  0  0
    0.7500    1.7010    0.0000 C   0  0  0  0  0  0  0  0  0  0  0  0
    0.0000    0.4019    0.0000 C   0  0  0  0  0  0  0  0  0  0  0  0
    0.7500   -0.8971    0.0000 C   0  0  0  0  0  0  0  0  0  0  0  0
    2.2500    1.7010    0.0000 C   0  0  0  0  0  0  0  0  0  0  0  0
    3.0000    3.0000    0.0000 C   0  0  0  0  0  0  0  0  0  0  0  0
    4.0420    4.0790    0.0000 C   0  0  0  0  0  0  0  0  0  0  0  0
    3.0000    0.4019    0.0000 C   0  0  0  0  0  0  0  0  0  0  0  0
    4.5000    0.4019    0.0000 C   0  0  0  0  0  0  0  0  0  0  0  0
  1  2  2  0
  2  3  2  0
  3  4  1  0
  4  5  1  0
  5  6  2  3
  6  7  1  0
  4  8  2  3
  8  9  1  0
  9 10  1  0
  9 11  1  0
 11 12  2  0
 12 13  2  0
 11 14  1  0
 14 15  2  0
 14 16  1  0
  8 17  1  0
 17 18  1  0
 18 19  2  0
 19 20  2  0
 17 21  1  0
 21 22  1  0
 22 23  1  0
 23 24  2  3
 24 25  1  0
 25 26  2  0
 26 27  2  0
 27 28  1  0
 24 29  1  0
 29 30  1  0
 17 31  1  0
 31 32  1  0
 32 33  2  0
 31 34  1  0
 34 35  2  0
 35 36  2  0
 34 37  1  0
 37 38  1  0
M  END
