
     RDKit          2D

 40 39  0  0  0  0  0  0  0  0999 V2000
    0.0000    0.0000    0.0000 C   0  0  0  0  0  0  0  0  0  0  0  0
    1.2990    0.7500    0.0000 C   0  0  0  0  0  0  0  0  0  0  0  0
    2.5981    1.5000    0.0000 C   0  0  0  0  0  0  0  0  0  0  0  0
    2.5981    3.0000    0.0000 C   0  0  0  0  0  0  0  0  0  0  0  0
    3.8971    3.7500    0.0000 C   0  0  0  0  0  0  0  0  0  0  0  0
    3.8971    5.2500    0.0000 C   0  0  0  0  0  0  0  0  0  0  0  0
    5.1962    6.0000    0.0000 C   0  0  0  0  0  0  0  0  0  0  0  0
    6.4952    6.7500    0.0000 C   0  0  0  0  0  0  0  0  0  0  0  0
    7.7942    6.0000    0.0000 C   0  0  0  0  0  0  0  0  0  0  0  0
    4.4462    7.2990    0.0000 C   0  0  0  0  0  0  0  0  0  0  0  0
    2.9462    7.2990    0.0000 C   0  0  0  0  0  0  0  0  0  0  0  0
    1.4462    7.2990    0.0000 C   0  0  0  0  0  0  0  0  0  0  0  0
    0.6962    6.0000    0.0000 C   0  0  0  0  0  0  0  0  0  0  0  0
    1.4462    4.7010    0.0000 C   0  0  0  0  0  0  0  0  0  0  0  0
   -0.8038    6.0000    0.0000 C   0  0  0  0  0  0  0  0  0  0  0  0
    5.1962    8.5981    0.0000 C   0  0  0  0  0  0  0  0  0  0  0  0
    4.4462    9.8971    0.0000 C   0  0  0  0  0  0  0  0  0  0  0  0
    5.1962   11.1962    0.0000 C   0  0  0  0  0  0  0  0  0  0  0  0
    4.4462   12.4952    0.0000 C   0  0  0  0  0  0  0  0  0  0  0  0
    6.6962   11.1962    0.0000 C   0  0  0  0  0  0  0  0  0  0  0  0
    5.9462    4.7010    0.0000 C   0  0  0  0  0  0  0  0  0  0  0  0
    5.1962    3.4019    0.0000 C   0  0  0  0  0  0  0  0  0  0  0  0
    4.4462    2.1029    0.0000 C   0  0  0  0  0  0  0  0  0  0  0  0
    3.6962    0.8038    0.0000 C   0  0  0  0  0  0  0  0  0  0  0  0
    4.4462   -0.4952    0.0000 C   0  0  0  0  0  0  0  0  0  0  0  0
    3.6962   -1.7942    0.0000 C   0  0  0  0  0  0  0  0  0  0  0  0
    4.4462   -3.0933    0.0000 C   0  0  0  0  0  0  0  0  0  0  0  0
    2.1962   -1.7942    0.0000 C   0  0  0  0  0  0  0  0  0  0  0  0
    1.4462   -3.0933    0.0000 C   0  0  0  0  0  0  0  0  0  0  0  0
   -0.0538   -3.0933    0.0000 C   0  0  0  0  0  0  0  0  0  0  0  0
    7.4462    4.7010    0.0000 C   0  0  0  0  0  0  0  0  0  0  0  0
    8.1962    3.4019    0.0000 C   0  0  0  0  0  0  0  0  0  0  0  0
    7.4462    2.1029    0.0000 C   0  0  0  0  0  0  0  0  0  0  0  0
    8.1962    0.8038    0.0000 C   0  0  0  0  0  0  0  0  0  0  0  0
    8.9462   -0.4952    0.0000 C   0  0  0  0  0  0  0  0  0  0  0  0
    9.6962    3.4019    0.0000 C   0  0  0  0  0  0  0  0  0  0  0  0
   10.4462    2.1029    0.0000 C   0  0  0  0  0  0  0  0  0  0  0  0
    9.6962    0.8038    0.0000 C   0  0  0  0  0  0  0  0  0  0  0  0
   11.9462    2.1029    0.0000 C   0  0  0  0  0  0  0  0  0  0  0  0
   13.4462    2.1029    0.0000 C   0  0  0  0  0  0  0  0  0  0  0  0
  1  2  2  0
  2  3  2  0
  3  4  1  0
  4  5  1  0
  5  6  2  3
  6  7  1  0
  7  8  1  0
  8  9  1  0
  7 10  1  0
 10 11  2  0
 11 12  2  0
 12 13  1  0
 13 14  2  0
 13 15  1  0
 10 16  1  0
 16 17  2  3
 17 18  1  0
 18 19  1  0
 18 20  1  0
  7 21  1  0
 21 22  2  0
 22 23  2  0
 23 24  2  0
 24 25  1  0
 25 26  1  0
 26 27  2  0
 26 28  1  0
 28 29  2  3
 29 30  1  0
 21 31  1  0
 31 32  1  0
 32 33  1  0
 33 34  2  0
 34 35  2  0
 32 36  1  0
 36 37  1  0
 37 38  1  0
 37 39  2  0
 39 40  2  0
M  END
