
     RDKit          2D

 40 39  0  0  0  0  0  0  0  0999 V2000
    0.0000    0.0000    0.0000 C   0  0  0  0  0  0  0  0  0  0  0  0
    1.2990    0.7500    0.0000 C   0  0  0  0  0  0  0  0  0  0  0  0
    2.5981    1.5000    0.0000 C   0  0  0  0  0  0  0  0  0  0  0  0
    2.5981    3.0000    0.0000 C   0  0  0  0  0  0  0  0  0  0  0  0
    3.8971    3.7500    0.0000 C   0  0  0  0  0  0  0  0  0  0  0  0
    1.2990    3.7500    0.0000 C   0  0  0  0  0  0  0  0  0  0  0  0
    0.0000    4.5000    0.0000 C   0  0  0  0  0  0  0  0  0  0  0  0
   -1.2990    3.7500    0.0000 C   0  0  0  0  0  0  0  0  0  0  0  0
   -2.5981    4.5000    0.0000 C   0  0  0  0  0  0  0  0  0  0  0  0
   -3.8971    3.7500    0.0000 C   0  0  0  0  0  0  0  0  0  0  0  0
   -2.5981    6.0000    0.0000 C   0  0  0  0  0  0  0  0  0  0  0  0
   -3.8971    6.7500    0.0000 C   0  0  0  0  0  0  0  0  0  0  0  0
   -1.2990    6.7500    0.0000 C   0  0  0  0  0  0  0  0  0  0  0  0
   -1.2990    8.2500    0.0000 C   0  0  0  0  0  0  0  0  0  0  0  0
   -2.7990    8.2500    0.0000 C   0  0  0  0  0  0  0  0  0  0  0  0
   -3.5490    9.5490    0.0000 C   0  0  0  0  0  0  0  0  0  0  0  0
   -4.2990   10.8481    0.0000 C   0  0  0  0  0  0  0  0  0  0  0  0
   -1.2990    9.7500    0.0000 C   0  0  0  0  0  0  0  0  0  0  0  0
   -2.5981   10.5000    0.0000 C   0  0  0  0  0  0  0  0  0  0  0  0
   -2.5981   12.0000    0.0000 C   0  0  0  0  0  0  0  0  0  0  0  0
    0.2010    8.2500    0.0000 C   0  0  0  0  0  0  0  0  0  0  0  0
    0.9510    9.5490    0.0000 C   0  0  0  0  0  0  0  0  0  0  0  0
    2.4510    9.5490    0.0000 C   0  0  0  0  0  0  0  0  0  0  0  0
    0.2010   10.8481    0.0000 C   0  0  0  0  0  0  0  0  0  0  0  0
   -1.2990   10.8481    0.0000 C   0  0  0  0  0  0  0  0  0  0  0  0
    0.9510   12.1471    0.0000 C   0  0  0  0  0  0  0  0  0  0  0  0
    0.2010   13.4462    0.0000 C   0  0  0  0  0  0  0  0  0  0  0  0
   -0.5490   14.7452    0.0000 C   0  0  0  0  0  0  0  0  0  0  0  0
   -2.0490   14.7452    0.0000 C   0  0  0  0  0  0  0  0  0  0  0  0
   -2.7990   16.0442    0.0000 C   0  0  0  0  0  0  0  0  0  0  0  0
   -3.5490   17.3433    0.0000 C   0  0  0  0  0  0  0  0  0  0  0  0
   -2.7990   18.6423    0.0000 C   0  0  0  0  0  0  0  0  0  0  0  0
   -3.5490   19.9413    0.0000 C   0  0  0  0  0  0  0  0  0  0  0  0
   -1.2990   18.6423    0.0000 C   0  0  0  0  0  0  0  0  0  0  0  0
   -0.5490   19.9413    0.0000 C   0  0  0  0  0  0  0  0  0  0  0  0
    0.9510    6.9510    0.0000 C   0  0  0  0  0  0  0  0  0  0  0  0
    0.2010    5.6519    0.0000 C   0  0  0  0  0  0  0  0  0  0  0  0
    2.4510    6.9510    0.0000 C   0  0  0  0  0  0  0  0  0  0  0  0
    3.2010    5.6519    0.0000 C   0  0  0  0  0  0  0  0  0  0  0  0
    3.2010    8.2500    0.0000 C   0  0  0  0  0  0  0  0  0  0  0  0
  1  2  2  0
  2  3  2  0
  3  4  1  0
  4  5  1  0
  4  6  2  0
  6  7  2  0
  7  8  1  0
  8  9  1  0
  9 10  2  0
  9 11  1  0
 11 12  1  0
 11 13  1  0
 13 14  1  0
 14 15  1  0
 15 16  2  0
 16 17  2  0
 14 18  1  0
 18 19  1  0
 19 20  1  0
 14 21  1  0
 21 22  1  0
 22 23  2  0
 22 24  1  0
 24 25  2  0
 24 26  1  0
 26 27  2  0
 27 28  2  0
 28 29  1  0
 29 30  2  0
 30 31  2  0
 31 32  1  0
 32 33  2  0
 32 34  1  0
 34 35  2  0
 21 36  2  3
 36 37  1  0
 36 38  1  0
 38 39  1  0
 38 40  1  0
M  END
