
     RDKit          2D

 40 39  0  0  0  0  0  0  0  0999 V2000
    0.0000    0.0000    0.0000 C   0  0  0  0  0  0  0  0  0  0  0  0
    1.2990    0.7500    0.0000 C   0  0  0  0  0  0  0  0  0  0  0  0
    2.5981    1.5000    0.0000 C   0  0  0  0  0  0  0  0  0  0  0  0
    3.8971    2.2500    0.0000 C   0  0  0  0  0  0  0  0  0  0  0  0
    5.1962    3.0000    0.0000 C   0  0  0  0  0  0  0  0  0  0  0  0
    6.4952    2.2500    0.0000 C   0  0  0  0  0  0  0  0  0  0  0  0
    6.4952    0.7500    0.0000 C   0  0  0  0  0  0  0  0  0  0  0  0
    6.4952   -0.7500    0.0000 C   0  0  0  0  0  0  0  0  0  0  0  0
    5.1962   -1.5000    0.0000 C   0  0  0  0  0  0  0  0  0  0  0  0
    4.4462   -0.2010    0.0000 C   0  0  0  0  0  0  0  0  0  0  0  0
    5.9462   -2.7990    0.0000 C   0  0  0  0  0  0  0  0  0  0  0  0
    5.1962   -4.0981    0.0000 C   0  0  0  0  0  0  0  0  0  0  0  0
    5.9462   -5.3971    0.0000 C   0  0  0  0  0  0  0  0  0  0  0  0
    6.6962   -6.6962    0.0000 C   0  0  0  0  0  0  0  0  0  0  0  0
    8.1962   -6.6962    0.0000 C   0  0  0  0  0  0  0  0  0  0  0  0
    8.9462   -7.9952    0.0000 C   0  0  0  0  0  0  0  0  0  0  0  0
    8.9462   -5.3971    0.0000 C   0  0  0  0  0  0  0  0  0  0  0  0
   10.4462   -5.3971    0.0000 C   0  0  0  0  0  0  0  0  0  0  0  0
    3.8971   -2.2500    0.0000 C   0  0  0  0  0  0  0  0  0  0  0  0
    3.1471   -0.9510    0.0000 C   0  0  0  0  0  0  0  0  0  0  0  0
    4.6471   -3.5490    0.0000 C   0  0  0  0  0  0  0  0  0  0  0  0
    2.5981   -3.0000    0.0000 C   0  0  0  0  0  0  0  0  0  0  0  0
    1.2990   -2.2500    0.0000 C   0  0  0  0  0  0  0  0  0  0  0  0
    5.1962    4.5000    0.0000 C   0  0  0  0  0  0  0  0  0  0  0  0
    6.4952    5.2500    0.0000 C   0  0  0  0  0  0  0  0  0  0  0  0
    3.8971    5.2500    0.0000 C   0  0  0  0  0  0  0  0  0  0  0  0
    2.5981    4.5000    0.0000 C   0  0  0  0  0  0  0  0  0  0  0  0
    3.8971    6.7500    0.0000 C   0  0  0  0  0  0  0  0  0  0  0  0
    5.3971    6.7500    0.0000 C   0  0  0  0  0  0  0  0  0  0  0  0
    6.1471    8.0490    0.0000 C   0  0  0  0  0  0  0  0  0  0  0  0
    7.6471    8.0490    0.0000 C   0  0  0  0  0  0  0  0  0  0  0  0
    8.3971    9.3481    0.0000 C   0  0  0  0  0  0  0  0  0  0  0  0
    3.8971    8.2500    0.0000 C   0  0  0  0  0  0  0  0  0  0  0  0
    2.5981    9.0000    0.0000 C   0  0  0  0  0  0  0  0  0  0  0  0
    2.5981   10.5000    0.0000 C   0  0  0  0  0  0  0  0  0  0  0  0
    2.3971    6.7500    0.0000 C   0  0  0  0  0  0  0  0  0  0  0  0
    1.6471    8.0490    0.0000 C   0  0  0  0  0  0  0  0  0  0  0  0
    1.6471    5.4510    0.0000 C   0  0  0  0  0  0  0  0  0  0  0  0
    0.8971    4.1519    0.0000 C   0  0  0  0  0  0  0  0  0  0  0  0
    0.1471    2.8529    0.0000 C   0  0  0  0  0  0  0  0  0  0  0  0
  1  2  2  0
  2  3  2  0
  3  4  2  0
  4  5  2  0
  5  6  1  0
  6  7  2  0
  7  8  2  0
  8  9  1  0
  9 10  1  0
  9 11  1  0
 11 12  1  0
 12 13  2  0
 13 14  2  0
 14 15  1  0
 15 16  2  0
 15 17  1  0
 17 18  2  0
  9 19  1  0
 19 20  1  0
 19 21  1  0
 19 22  1  0
 22 23  2  0
  5 24  1  0
 24 25  1  0
 24 26  1  0
 26 27  1  0
 26 28  1  0
 28 29  1  0
 29 30  2  3
 30 31  1  0
 31 32  1  0
 28 33  1  0
 33 34  1  0
 34 35  2  0
 28 36  1  0
 36 37  1  0
 36 38  2  0
 38 39  2  0
 39 40  2  0
M  END
