
     RDKit          2D

 38 37  0  0  0  0  0  0  0  0999 V2000
    2.5981   -4.5000    0.0000 C   0  0  0  0  0  0  0  0  0  0  0  0
    3.8971   -3.7500    0.0000 C   0  0  0  0  0  0  0  0  0  0  0  0
    5.1962   -3.0000    0.0000 C   0  0  0  0  0  0  0  0  0  0  0  0
    6.4952   -2.2500    0.0000 C   0  0  0  0  0  0  0  0  0  0  0  0
    6.4952   -0.7500    0.0000 C   0  0  0  0  0  0  0  0  0  0  0  0
    7.7942   -0.0000    0.0000 C   0  0  0  0  0  0  0  0  0  0  0  0
    5.1962   -0.0000    0.0000 C   0  0  0  0  0  0  0  0  0  0  0  0
    5.1962    1.5000    0.0000 C   0  0  0  0  0  0  0  0  0  0  0  0
    3.8971   -0.7500    0.0000 C   0  0  0  0  0  0  0  0  0  0  0  0
    4.6471   -2.0490    0.0000 C   0  0  0  0  0  0  0  0  0  0  0  0
    3.1471    0.5490    0.0000 C   0  0  0  0  0  0  0  0  0  0  0  0
    3.8971    1.8481    0.0000 C   0  0  0  0  0  0  0  0  0  0  0  0
    3.1471    3.1471    0.0000 C   0  0  0  0  0  0  0  0  0  0  0  0
    2.3971    4.4462    0.0000 C   0  0  0  0  0  0  0  0  0  0  0  0
    2.5981   -1.5000    0.0000 C   0  0  0  0  0  0  0  0  0  0  0  0
    3.3481   -2.7990    0.0000 C   0  0  0  0  0  0  0  0  0  0  0  0
    1.2990   -2.2500    0.0000 C   0  0  0  0  0  0  0  0  0  0  0  0
    1.2990   -3.7500    0.0000 C   0  0  0  0  0  0  0  0  0  0  0  0
    0.0000   -4.5000    0.0000 C   0  0  0  0  0  0  0  0  0  0  0  0
    0.0000   -6.0000    0.0000 C   0  0  0  0  0  0  0  0  0  0  0  0
    0.0000   -7.5000    0.0000 C   0  0  0  0  0  0  0  0  0  0  0  0
    0.0000   -9.0000    0.0000 C   0  0  0  0  0  0  0  0  0  0  0  0
    0.0000  -10.5000    0.0000 C   0  0  0  0  0  0  0  0  0  0  0  0
    0.0000  -12.0000    0.0000 C   0  0  0  0  0  0  0  0  0  0  0  0
   -1.2990  -12.7500    0.0000 C   0  0  0  0  0  0  0  0  0  0  0  0
    1.8481   -0.2010    0.0000 C   0  0  0  0  0  0  0  0  0  0  0  0
    0.3481   -0.2010    0.0000 C   0  0  0  0  0  0  0  0  0  0  0  0
   -0.4019    1.0981    0.0000 C   0  0  0  0  0  0  0  0  0  0  0  0
   -1.9019    1.0981    0.0000 C   0  0  0  0  0  0  0  0  0  0  0  0
   -2.6519    2.3971    0.0000 C   0  0  0  0  0  0  0  0  0  0  0  0
   -4.1519    2.3971    0.0000 C   0  0  0  0  0  0  0  0  0  0  0  0
   -4.9019    3.6962    0.0000 C   0  0  0  0  0  0  0  0  0  0  0  0
   -6.4019    3.6962    0.0000 C   0  0  0  0  0  0  0  0  0  0  0  0
   -7.1519    4.9952    0.0000 C   0  0  0  0  0  0  0  0  0  0  0  0
   -4.9019    1.0981    0.0000 C   0  0  0  0  0  0  0  0  0  0  0  0
   -6.4019    1.0981    0.0000 C   0  0  0  0  0  0  0  0  0  0  0  0
   -4.1519   -0.2010    0.0000 C   0  0  0  0  0  0  0  0  0  0  0  0
   -4.9019   -1.5000    0.0000 C   0  0  0  0  0  0  0  0  0  0  0  0
  1  2  2  0
  2  3  2  0
  3  4  2  0
  4  5  1  0
  5  6  1  0
  5  7  1  0
  7  8  2  0
  7  9  1  0
  9 10  1  0
  9 11  1  0
 11 12  1  0
 12 13  2  0
 13 14  2  0
  9 15  1  0
 15 16  1  0
 15 17  1  0
 17 18  2  3
 18 19  1  0
 19 20  2  0
 20 21  2  0
 21 22  2  0
 22 23  2  0
 23 24  2  0
 24 25  1  0
 15 26  1  0
 26 27  1  0
 27 28  2  3
 28 29  1  0
 29 30  1  0
 30 31  1  0
 31 32  1  0
 32 33  1  0
 33 34  2  0
 31 35  1  0
 35 36  1  0
 35 37  2  3
 37 38  1  0
M  END
