
     RDKit          2D

 40 39  0  0  0  0  0  0  0  0999 V2000
    0.0000    0.0000    0.0000 C   0  0  0  0  0  0  0  0  0  0  0  0
    1.2990    0.7500    0.0000 C   0  0  0  0  0  0  0  0  0  0  0  0
    2.5981   -0.0000    0.0000 C   0  0  0  0  0  0  0  0  0  0  0  0
    3.8971    0.7500    0.0000 C   0  0  0  0  0  0  0  0  0  0  0  0
    5.1962   -0.0000    0.0000 C   0  0  0  0  0  0  0  0  0  0  0  0
    6.4952   -0.7500    0.0000 C   0  0  0  0  0  0  0  0  0  0  0  0
    5.9462    1.2990    0.0000 C   0  0  0  0  0  0  0  0  0  0  0  0
    7.4462    1.2990    0.0000 C   0  0  0  0  0  0  0  0  0  0  0  0
    8.1962    2.5981    0.0000 C   0  0  0  0  0  0  0  0  0  0  0  0
    8.1962   -0.0000    0.0000 C   0  0  0  0  0  0  0  0  0  0  0  0
    9.6962   -0.0000    0.0000 C   0  0  0  0  0  0  0  0  0  0  0  0
   11.1962   -0.0000    0.0000 C   0  0  0  0  0  0  0  0  0  0  0  0
   12.6962   -0.0000    0.0000 C   0  0  0  0  0  0  0  0  0  0  0  0
   14.1962   -0.0000    0.0000 C   0  0  0  0  0  0  0  0  0  0  0  0
   15.6962   -0.0000    0.0000 C   0  0  0  0  0  0  0  0  0  0  0  0
   17.1962   -0.0000    0.0000 C   0  0  0  0  0  0  0  0  0  0  0  0
   18.6962   -0.0000    0.0000 C   0  0  0  0  0  0  0  0  0  0  0  0
   19.4462   -1.2990    0.0000 C   0  0  0  0  0  0  0  0  0  0  0  0
   20.9462   -1.2990    0.0000 C   0  0  0  0  0  0  0  0  0  0  0  0
   18.6962   -2.5981    0.0000 C   0  0  0  0  0  0  0  0  0  0  0  0
   17.9462   -3.8971    0.0000 C   0  0  0  0  0  0  0  0  0  0  0  0
   17.1962   -5.1962    0.0000 C   0  0  0  0  0  0  0  0  0  0  0  0
   17.9462   -6.4952    0.0000 C   0  0  0  0  0  0  0  0  0  0  0  0
   17.1962   -7.7942    0.0000 C   0  0  0  0  0  0  0  0  0  0  0  0
   19.4462   -6.4952    0.0000 C   0  0  0  0  0  0  0  0  0  0  0  0
   20.1962   -5.1962    0.0000 C   0  0  0  0  0  0  0  0  0  0  0  0
   20.1962   -7.7942    0.0000 C   0  0  0  0  0  0  0  0  0  0  0  0
   21.6962   -7.7942    0.0000 C   0  0  0  0  0  0  0  0  0  0  0  0
    4.4462   -1.2990    0.0000 C   0  0  0  0  0  0  0  0  0  0  0  0
    2.9462   -1.2990    0.0000 C   0  0  0  0  0  0  0  0  0  0  0  0
    2.1962   -2.5981    0.0000 C   0  0  0  0  0  0  0  0  0  0  0  0
    0.6962   -2.5981    0.0000 C   0  0  0  0  0  0  0  0  0  0  0  0
    5.1962   -2.5981    0.0000 C   0  0  0  0  0  0  0  0  0  0  0  0
    6.6962   -2.5981    0.0000 C   0  0  0  0  0  0  0  0  0  0  0  0
    4.4462   -3.8971    0.0000 C   0  0  0  0  0  0  0  0  0  0  0  0
    5.1962   -5.1962    0.0000 C   0  0  0  0  0  0  0  0  0  0  0  0
    4.4462   -6.4952    0.0000 C   0  0  0  0  0  0  0  0  0  0  0  0
    5.1962   -7.7942    0.0000 C   0  0  0  0  0  0  0  0  0  0  0  0
    2.9462   -6.4952    0.0000 C   0  0  0  0  0  0  0  0  0  0  0  0
    2.1962   -7.7942    0.0000 C   0  0  0  0  0  0  0  0  0  0  0  0
  1  2  2  0
  2  3  1  0
  3  4  1  0
  4  5  1  0
  5  6  1  0
  5  7  1  0
  7  8  2  3
  8  9  1  0
  8 10  1  0
 10 11  2  0
 11 12  2  0
 12 13  2  0
 13 14  2  0
 14 15  2  0
 15 16  2  0
 16 17  2  0
 17 18  1  0
 18 19  1  0
 18 20  2  0
 20 21  2  0
 21 22  2  0
 22 23  1  0
 23 24  1  0
 23 25  1  0
 25 26  2  0
 25 27  1  0
 27 28  1  0
  5 29  1  0
 29 30  1  0
 30 31  1  0
 31 32  2  0
 29 33  1  0
 33 34  1  0
 33 35  2  3
 35 36  1  0
 36 37  2  3
 37 38  1  0
 37 39  1  0
 39 40  1  0
M  END
