
     RDKit          2D

 40 39  0  0  0  0  0  0  0  0999 V2000
    0.0000    0.0000    0.0000 C   0  0  0  0  0  0  0  0  0  0  0  0
    1.2990    0.7500    0.0000 C   0  0  0  0  0  0  0  0  0  0  0  0
    2.5981    1.5000    0.0000 C   0  0  0  0  0  0  0  0  0  0  0  0
    2.5981    3.0000    0.0000 C   0  0  0  0  0  0  0  0  0  0  0  0
    2.5981    4.5000    0.0000 C   0  0  0  0  0  0  0  0  0  0  0  0
    1.2990    5.2500    0.0000 C   0  0  0  0  0  0  0  0  0  0  0  0
    3.8971    5.2500    0.0000 C   0  0  0  0  0  0  0  0  0  0  0  0
    3.8971    6.7500    0.0000 C   0  0  0  0  0  0  0  0  0  0  0  0
    5.1962    7.5000    0.0000 C   0  0  0  0  0  0  0  0  0  0  0  0
    5.1962    9.0000    0.0000 C   0  0  0  0  0  0  0  0  0  0  0  0
    5.1962    4.5000    0.0000 C   0  0  0  0  0  0  0  0  0  0  0  0
    6.4952    5.2500    0.0000 C   0  0  0  0  0  0  0  0  0  0  0  0
    4.0981    3.0000    0.0000 C   0  0  0  0  0  0  0  0  0  0  0  0
    4.8577    3.7866    0.0000 C   0  0  0  0  0  0  0  0  0  0  0  0
    4.8481    1.7010    0.0000 C   0  0  0  0  0  0  0  0  0  0  0  0
    6.3481    1.7010    0.0000 C   0  0  0  0  0  0  0  0  0  0  0  0
    4.0981    0.4019    0.0000 C   0  0  0  0  0  0  0  0  0  0  0  0
    4.8481   -0.8971    0.0000 C   0  0  0  0  0  0  0  0  0  0  0  0
    2.5981    0.4019    0.0000 C   0  0  0  0  0  0  0  0  0  0  0  0
    1.8481   -0.8971    0.0000 C   0  0  0  0  0  0  0  0  0  0  0  0
    0.3593   -1.0800    0.0000 C   0  0  0  0  0  0  0  0  0  0  0  0
    1.0981    3.0000    0.0000 C   0  0  0  0  0  0  0  0  0  0  0  0
    0.3481    4.2990    0.0000 C   0  0  0  0  0  0  0  0  0  0  0  0
   -1.1519    4.2990    0.0000 C   0  0  0  0  0  0  0  0  0  0  0  0
   -1.9019    5.5981    0.0000 C   0  0  0  0  0  0  0  0  0  0  0  0
    0.3481    1.7010    0.0000 C   0  0  0  0  0  0  0  0  0  0  0  0
   -1.1519    1.7010    0.0000 C   0  0  0  0  0  0  0  0  0  0  0  0
   -1.9019    0.4019    0.0000 C   0  0  0  0  0  0  0  0  0  0  0  0
    1.0981    0.4019    0.0000 C   0  0  0  0  0  0  0  0  0  0  0  0
    0.1953   -0.7960    0.0000 C   0  0  0  0  0  0  0  0  0  0  0  0
    2.5981    0.4019    0.0000 C   0  0  0  0  0  0  0  0  0  0  0  0
    3.3481   -0.8971    0.0000 C   0  0  0  0  0  0  0  0  0  0  0  0
    4.0981   -2.1962    0.0000 C   0  0  0  0  0  0  0  0  0  0  0  0
    4.8481   -3.4952    0.0000 C   0  0  0  0  0  0  0  0  0  0  0  0
    6.3481   -3.4952    0.0000 C   0  0  0  0  0  0  0  0  0  0  0  0
    7.0981   -4.7942    0.0000 C   0  0  0  0  0  0  0  0  0  0  0  0
    7.8481   -6.0933    0.0000 C   0  0  0  0  0  0  0  0  0  0  0  0
    8.5981   -7.3923    0.0000 C   0  0  0  0  0  0  0  0  0  0  0  0
   10.0981   -7.3923    0.0000 C   0  0  0  0  0  0  0  0  0  0  0  0
    7.8481   -8.6913    0.0000 C   0  0  0  0  0  0  0  0  0  0  0  0
  1  2  2  0
  2  3  2  0
  3  4  1  0
  4  5  1  0
  5  6  2  0
  5  7  1  0
  7  8  1  0
  8  9  2  3
  9 10  1  0
  7 11  2  3
 11 12  1  0
  4 13  1  0
 13 14  1  0
 13 15  2  3
 15 16  1  0
 15 17  1  0
 17 18  1  0
 17 19  1  0
 19 20  2  3
 20 21  1  0
  4 22  1  0
 22 23  1  0
 23 24  1  0
 24 25  2  0
 22 26  2  3
 26 27  1  0
 27 28  1  0
 26 29  1  0
 29 30  2  0
 29 31  1  0
 31 32  2  0
 32 33  2  0
 33 34  2  0
 34 35  1  0
 35 36  2  0
 36 37  2  0
 37 38  2  0
 38 39  1  0
 38 40  1  0
M  END
