
     RDKit          2D

 38 37  0  0  0  0  0  0  0  0999 V2000
    5.1962    9.0000    0.0000 C   0  0  0  0  0  0  0  0  0  0  0  0
    5.1962    7.5000    0.0000 C   0  0  0  0  0  0  0  0  0  0  0  0
    5.1962    6.0000    0.0000 C   0  0  0  0  0  0  0  0  0  0  0  0
    3.8971    5.2500    0.0000 C   0  0  0  0  0  0  0  0  0  0  0  0
    3.8971    3.7500    0.0000 C   0  0  0  0  0  0  0  0  0  0  0  0
    2.5981    3.0000    0.0000 C   0  0  0  0  0  0  0  0  0  0  0  0
    2.5981    6.0000    0.0000 C   0  0  0  0  0  0  0  0  0  0  0  0
    1.2990    5.2500    0.0000 C   0  0  0  0  0  0  0  0  0  0  0  0
    1.2990    3.7500    0.0000 C   0  0  0  0  0  0  0  0  0  0  0  0
    0.0000    3.0000    0.0000 C   0  0  0  0  0  0  0  0  0  0  0  0
   -1.2990    2.2500    0.0000 C   0  0  0  0  0  0  0  0  0  0  0  0
    0.0000    6.0000    0.0000 C   0  0  0  0  0  0  0  0  0  0  0  0
    0.0000    7.5000    0.0000 C   0  0  0  0  0  0  0  0  0  0  0  0
    0.0000    9.0000    0.0000 C   0  0  0  0  0  0  0  0  0  0  0  0
   -1.5000    7.5000    0.0000 C   0  0  0  0  0  0  0  0  0  0  0  0
   -2.2500    8.7990    0.0000 C   0  0  0  0  0  0  0  0  0  0  0  0
   -3.0000   10.0981    0.0000 C   0  0  0  0  0  0  0  0  0  0  0  0
   -3.7500   11.3971    0.0000 C   0  0  0  0  0  0  0  0  0  0  0  0
   -5.2500   11.3971    0.0000 C   0  0  0  0  0  0  0  0  0  0  0  0
   -6.0000   12.6962    0.0000 C   0  0  0  0  0  0  0  0  0  0  0  0
   -7.5000   12.6962    0.0000 C   0  0  0  0  0  0  0  0  0  0  0  0
   -8.2500   13.9952    0.0000 C   0  0  0  0  0  0  0  0  0  0  0  0
   -7.5000   15.2942    0.0000 C   0  0  0  0  0  0  0  0  0  0  0  0
   -9.7500   13.9952    0.0000 C   0  0  0  0  0  0  0  0  0  0  0  0
   -6.0000   10.0981    0.0000 C   0  0  0  0  0  0  0  0  0  0  0  0
   -5.2500    8.7990    0.0000 C   0  0  0  0  0  0  0  0  0  0  0  0
   -7.5000   10.0981    0.0000 C   0  0  0  0  0  0  0  0  0  0  0  0
   -8.2500   11.3971    0.0000 C   0  0  0  0  0  0  0  0  0  0  0  0
   -9.0000   12.6962    0.0000 C   0  0  0  0  0  0  0  0  0  0  0  0
   -8.2500    8.7990    0.0000 C   0  0  0  0  0  0  0  0  0  0  0  0
   -7.5000    7.5000    0.0000 C   0  0  0  0  0  0  0  0  0  0  0  0
   -9.7500    8.7990    0.0000 C   0  0  0  0  0  0  0  0  0  0  0  0
    1.5000    7.5000    0.0000 C   0  0  0  0  0  0  0  0  0  0  0  0
    2.2500    8.7990    0.0000 C   0  0  0  0  0  0  0  0  0  0  0  0
    3.7500    8.7990    0.0000 C   0  0  0  0  0  0  0  0  0  0  0  0
    1.5000   10.0981    0.0000 C   0  0  0  0  0  0  0  0  0  0  0  0
    2.2500   11.3971    0.0000 C   0  0  0  0  0  0  0  0  0  0  0  0
    1.5000   12.6962    0.0000 C   0  0  0  0  0  0  0  0  0  0  0  0
  1  2  2  0
  2  3  2  0
  3  4  1  0
  4  5  1  0
  5  6  1  0
  4  7  1  0
  7  8  1  0
  8  9  1  0
  9 10  2  0
 10 11  2  0
  8 12  1  0
 12 13  1  0
 13 14  1  0
 13 15  1  0
 15 16  2  0
 16 17  2  0
 17 18  2  0
 18 19  1  0
 19 20  2  3
 20 21  1  0
 21 22  1  0
 22 23  2  0
 22 24  1  0
 19 25  1  0
 25 26  2  0
 25 27  1  0
 27 28  2  0
 28 29  2  0
 27 30  1  0
 30 31  2  0
 30 32  1  0
 13 33  1  0
 33 34  1  0
 34 35  1  0
 34 36  2  3
 36 37  1  0
 37 38  2  0
M  END
