
     RDKit          2D

 40 39  0  0  0  0  0  0  0  0999 V2000
    0.0000    0.0000    0.0000 C   0  0  0  0  0  0  0  0  0  0  0  0
    1.2990    0.7500    0.0000 C   0  0  0  0  0  0  0  0  0  0  0  0
    2.5981    1.5000    0.0000 C   0  0  0  0  0  0  0  0  0  0  0  0
    2.5981    3.0000    0.0000 C   0  0  0  0  0  0  0  0  0  0  0  0
    3.8971    3.7500    0.0000 C   0  0  0  0  0  0  0  0  0  0  0  0
    3.8971    5.2500    0.0000 C   0  0  0  0  0  0  0  0  0  0  0  0
    5.1962    3.0000    0.0000 C   0  0  0  0  0  0  0  0  0  0  0  0
    5.1962    1.5000    0.0000 C   0  0  0  0  0  0  0  0  0  0  0  0
    6.4952    0.7500    0.0000 C   0  0  0  0  0  0  0  0  0  0  0  0
    6.4952   -0.7500    0.0000 C   0  0  0  0  0  0  0  0  0  0  0  0
    7.7942   -1.5000    0.0000 C   0  0  0  0  0  0  0  0  0  0  0  0
    7.7942   -3.0000    0.0000 C   0  0  0  0  0  0  0  0  0  0  0  0
    9.0933   -3.7500    0.0000 C   0  0  0  0  0  0  0  0  0  0  0  0
    9.0933   -5.2500    0.0000 C   0  0  0  0  0  0  0  0  0  0  0  0
   10.3923   -6.0000    0.0000 C   0  0  0  0  0  0  0  0  0  0  0  0
   10.3923   -7.5000    0.0000 C   0  0  0  0  0  0  0  0  0  0  0  0
   11.6913   -8.2500    0.0000 C   0  0  0  0  0  0  0  0  0  0  0  0
    9.0933   -8.2500    0.0000 C   0  0  0  0  0  0  0  0  0  0  0  0
    7.7942   -9.0000    0.0000 C   0  0  0  0  0  0  0  0  0  0  0  0
   10.3923   -3.0000    0.0000 C   0  0  0  0  0  0  0  0  0  0  0  0
   11.6913   -3.7500    0.0000 C   0  0  0  0  0  0  0  0  0  0  0  0
   10.3923   -1.5000    0.0000 C   0  0  0  0  0  0  0  0  0  0  0  0
   11.6913   -0.7500    0.0000 C   0  0  0  0  0  0  0  0  0  0  0  0
   11.6913    0.7500    0.0000 C   0  0  0  0  0  0  0  0  0  0  0  0
    6.4952    3.7500    0.0000 C   0  0  0  0  0  0  0  0  0  0  0  0
    7.7942    3.0000    0.0000 C   0  0  0  0  0  0  0  0  0  0  0  0
    9.0933    3.7500    0.0000 C   0  0  0  0  0  0  0  0  0  0  0  0
    9.0933    5.2500    0.0000 C   0  0  0  0  0  0  0  0  0  0  0  0
    7.7942    6.0000    0.0000 C   0  0  0  0  0  0  0  0  0  0  0  0
    7.7942    7.5000    0.0000 C   0  0  0  0  0  0  0  0  0  0  0  0
    7.7942    9.0000    0.0000 C   0  0  0  0  0  0  0  0  0  0  0  0
    9.0933    9.7500    0.0000 C   0  0  0  0  0  0  0  0  0  0  0  0
    9.0933   11.2500    0.0000 C   0  0  0  0  0  0  0  0  0  0  0  0
   10.3923    9.0000    0.0000 C   0  0  0  0  0  0  0  0  0  0  0  0
   11.6913    9.7500    0.0000 C   0  0  0  0  0  0  0  0  0  0  0  0
   10.3923    6.0000    0.0000 C   0  0  0  0  0  0  0  0  0  0  0  0
   10.3923    7.5000    0.0000 C   0  0  0  0  0  0  0  0  0  0  0  0
   11.6913    5.2500    0.0000 C   0  0  0  0  0  0  0  0  0  0  0  0
   12.9904    6.0000    0.0000 C   0  0  0  0  0  0  0  0  0  0  0  0
   14.2894    6.7500    0.0000 C   0  0  0  0  0  0  0  0  0  0  0  0
  1  2  2  0
  2  3  2  0
  3  4  1  0
  4  5  2  3
  5  6  1  0
  5  7  1  0
  7  8  2  3
  8  9  1  0
  9 10  2  3
 10 11  1  0
 11 12  2  3
 12 13  1  0
 13 14  1  0
 14 15  1  0
 15 16  1  0
 16 17  1  0
 16 18  2  0
 18 19  2  0
 13 20  1  0
 20 21  1  0
 20 22  1  0
 22 23  1  0
 23 24  2  0
  7 25  1  0
 25 26  1  0
 26 27  1  0
 27 28  1  0
 28 29  1  0
 29 30  2  0
 30 31  2  0
 31 32  1  0
 32 33  2  0
 32 34  1  0
 34 35  2  0
 28 36  2  3
 36 37  1  0
 36 38  1  0
 38 39  2  0
 39 40  2  0
M  END
