
     RDKit          2D

 40 39  0  0  0  0  0  0  0  0999 V2000
   -0.0000    0.0000    0.0000 C   0  0  0  0  0  0  0  0  0  0  0  0
    1.2990    0.7500    0.0000 C   0  0  0  0  0  0  0  0  0  0  0  0
    2.5981    1.5000    0.0000 C   0  0  0  0  0  0  0  0  0  0  0  0
    3.8971    2.2500    0.0000 C   0  0  0  0  0  0  0  0  0  0  0  0
    5.1962    3.0000    0.0000 C   0  0  0  0  0  0  0  0  0  0  0  0
    5.1962    4.5000    0.0000 C   0  0  0  0  0  0  0  0  0  0  0  0
    6.4952    5.2500    0.0000 C   0  0  0  0  0  0  0  0  0  0  0  0
    6.4952    6.7500    0.0000 C   0  0  0  0  0  0  0  0  0  0  0  0
    7.9952    6.7500    0.0000 C   0  0  0  0  0  0  0  0  0  0  0  0
    8.7452    8.0490    0.0000 C   0  0  0  0  0  0  0  0  0  0  0  0
    4.9952    6.7500    0.0000 C   0  0  0  0  0  0  0  0  0  0  0  0
    4.2452    5.4510    0.0000 C   0  0  0  0  0  0  0  0  0  0  0  0
    2.7452    5.4510    0.0000 C   0  0  0  0  0  0  0  0  0  0  0  0
    1.2452    5.4510    0.0000 C   0  0  0  0  0  0  0  0  0  0  0  0
    0.4952    6.7500    0.0000 C   0  0  0  0  0  0  0  0  0  0  0  0
   -0.2548    8.0490    0.0000 C   0  0  0  0  0  0  0  0  0  0  0  0
    0.4952    9.3481    0.0000 C   0  0  0  0  0  0  0  0  0  0  0  0
   -0.2548   10.6471    0.0000 C   0  0  0  0  0  0  0  0  0  0  0  0
    0.4952   11.9462    0.0000 C   0  0  0  0  0  0  0  0  0  0  0  0
   -0.2548   13.2452    0.0000 C   0  0  0  0  0  0  0  0  0  0  0  0
    2.7452    3.9510    0.0000 C   0  0  0  0  0  0  0  0  0  0  0  0
    1.4462    3.2010    0.0000 C   0  0  0  0  0  0  0  0  0  0  0  0
    1.4462    1.7010    0.0000 C   0  0  0  0  0  0  0  0  0  0  0  0
    0.1471    0.9510    0.0000 C   0  0  0  0  0  0  0  0  0  0  0  0
   -1.1519    0.2010    0.0000 C   0  0  0  0  0  0  0  0  0  0  0  0
    2.7452    6.9510    0.0000 C   0  0  0  0  0  0  0  0  0  0  0  0
    4.0442    7.7010    0.0000 C   0  0  0  0  0  0  0  0  0  0  0  0
    4.0442    9.2010    0.0000 C   0  0  0  0  0  0  0  0  0  0  0  0
    5.3433    9.9510    0.0000 C   0  0  0  0  0  0  0  0  0  0  0  0
    5.3433   11.4510    0.0000 C   0  0  0  0  0  0  0  0  0  0  0  0
    1.4462    7.7010    0.0000 C   0  0  0  0  0  0  0  0  0  0  0  0
    1.4462    9.2010    0.0000 C   0  0  0  0  0  0  0  0  0  0  0  0
    2.7452    9.9510    0.0000 C   0  0  0  0  0  0  0  0  0  0  0  0
    4.2452    8.0490    0.0000 C   0  0  0  0  0  0  0  0  0  0  0  0
    2.7452    8.0490    0.0000 C   0  0  0  0  0  0  0  0  0  0  0  0
    6.4952    8.2500    0.0000 C   0  0  0  0  0  0  0  0  0  0  0  0
    5.1962    9.0000    0.0000 C   0  0  0  0  0  0  0  0  0  0  0  0
    7.7942    9.0000    0.0000 C   0  0  0  0  0  0  0  0  0  0  0  0
    7.7942   10.5000    0.0000 C   0  0  0  0  0  0  0  0  0  0  0  0
    9.0933   11.2500    0.0000 C   0  0  0  0  0  0  0  0  0  0  0  0
  1  2  2  0
  2  3  2  0
  3  4  2  0
  4  5  2  0
  5  6  1  0
  6  7  1  0
  7  8  1  0
  8  9  1  0
  9 10  2  0
  8 11  1  0
 11 12  2  3
 12 13  1  0
 13 14  1  0
 14 15  2  0
 15 16  2  0
 16 17  1  0
 17 18  2  3
 18 19  1  0
 19 20  2  0
 13 21  1  0
 21 22  1  0
 22 23  1  0
 23 24  2  0
 24 25  2  0
 13 26  1  0
 26 27  1  0
 27 28  2  3
 28 29  1  0
 29 30  2  0
 26 31  1  0
 31 32  1  0
 32 33  2  0
 11 34  1  0
 34 35  1  0
  8 36  1  0
 36 37  1  0
 36 38  1  0
 38 39  1  0
 39 40  2  0
M  END
