
     RDKit          2D

 30 29  0  0  0  0  0  0  0  0999 V2000
    0.0000    0.0000    0.0000 C   0  0  0  0  0  0  0  0  0  0  0  0
    1.2990    0.7500    0.0000 C   0  0  0  0  0  0  0  0  0  0  0  0
    2.5981    1.5000    0.0000 C   0  0  0  0  0  0  0  0  0  0  0  0
    3.8971    2.2500    0.0000 C   0  0  0  0  0  0  0  0  0  0  0  0
    5.1962    1.5000    0.0000 C   0  0  0  0  0  0  0  0  0  0  0  0
    5.1962   -0.0000    0.0000 C   0  0  0  0  0  0  0  0  0  0  0  0
    6.4952   -0.7500    0.0000 C   0  0  0  0  0  0  0  0  0  0  0  0
    7.7942   -1.5000    0.0000 C   0  0  0  0  0  0  0  0  0  0  0  0
    7.7942   -3.0000    0.0000 C   0  0  0  0  0  0  0  0  0  0  0  0
    5.7452   -2.0490    0.0000 C   0  0  0  0  0  0  0  0  0  0  0  0
    6.4952   -3.3481    0.0000 C   0  0  0  0  0  0  0  0  0  0  0  0
    7.2452    0.5490    0.0000 C   0  0  0  0  0  0  0  0  0  0  0  0
    8.7452    0.5490    0.0000 C   0  0  0  0  0  0  0  0  0  0  0  0
    9.4952    1.8481    0.0000 C   0  0  0  0  0  0  0  0  0  0  0  0
    9.4952   -0.7500    0.0000 C   0  0  0  0  0  0  0  0  0  0  0  0
   10.2452   -2.0490    0.0000 C   0  0  0  0  0  0  0  0  0  0  0  0
    6.4952    2.2500    0.0000 C   0  0  0  0  0  0  0  0  0  0  0  0
    6.4952    3.7500    0.0000 C   0  0  0  0  0  0  0  0  0  0  0  0
    6.4952    5.2500    0.0000 C   0  0  0  0  0  0  0  0  0  0  0  0
    7.7942    6.0000    0.0000 C   0  0  0  0  0  0  0  0  0  0  0  0
    7.9952    3.7500    0.0000 C   0  0  0  0  0  0  0  0  0  0  0  0
    8.7452    5.0490    0.0000 C   0  0  0  0  0  0  0  0  0  0  0  0
    8.7452    2.4510    0.0000 C   0  0  0  0  0  0  0  0  0  0  0  0
   10.2452    2.4510    0.0000 C   0  0  0  0  0  0  0  0  0  0  0  0
   10.9952    1.1519    0.0000 C   0  0  0  0  0  0  0  0  0  0  0  0
    4.9952    3.7500    0.0000 C   0  0  0  0  0  0  0  0  0  0  0  0
    4.2355    2.9634    0.0000 C   0  0  0  0  0  0  0  0  0  0  0  0
    4.2452    5.0490    0.0000 C   0  0  0  0  0  0  0  0  0  0  0  0
    2.7452    5.0490    0.0000 C   0  0  0  0  0  0  0  0  0  0  0  0
    1.2452    5.0490    0.0000 C   0  0  0  0  0  0  0  0  0  0  0  0
  1  2  2  0
  2  3  2  0
  3  4  2  0
  4  5  1  0
  5  6  2  3
  6  7  1  0
  7  8  1  0
  8  9  2  0
  7 10  1  0
 10 11  1  0
  7 12  1  0
 12 13  1  0
 13 14  1  0
 13 15  2  0
 15 16  2  0
  5 17  1  0
 17 18  1  0
 18 19  1  0
 19 20  2  0
 18 21  1  0
 21 22  2  0
 21 23  1  0
 23 24  2  3
 24 25  1  0
 18 26  1  0
 26 27  1  0
 26 28  1  0
 28 29  2  0
 29 30  2  0
M  END
