
     RDKit          2D

 35 34  0  0  0  0  0  0  0  0999 V2000
    0.0000   -0.0000    0.0000 C   0  0  0  0  0  0  0  0  0  0  0  0
    1.2990    0.7500    0.0000 C   0  0  0  0  0  0  0  0  0  0  0  0
    2.5981    1.5000    0.0000 C   0  0  0  0  0  0  0  0  0  0  0  0
    2.5981    3.0000    0.0000 C   0  0  0  0  0  0  0  0  0  0  0  0
    1.2990    3.7500    0.0000 C   0  0  0  0  0  0  0  0  0  0  0  0
    1.2990    5.2500    0.0000 C   0  0  0  0  0  0  0  0  0  0  0  0
    0.0000    6.0000    0.0000 C   0  0  0  0  0  0  0  0  0  0  0  0
   -1.2990    5.2500    0.0000 C   0  0  0  0  0  0  0  0  0  0  0  0
   -2.5981    6.0000    0.0000 C   0  0  0  0  0  0  0  0  0  0  0  0
   -1.2990    3.7500    0.0000 C   0  0  0  0  0  0  0  0  0  0  0  0
    0.0000    3.0000    0.0000 C   0  0  0  0  0  0  0  0  0  0  0  0
   -2.5981    3.0000    0.0000 C   0  0  0  0  0  0  0  0  0  0  0  0
   -2.5981    1.5000    0.0000 C   0  0  0  0  0  0  0  0  0  0  0  0
    2.5981    6.0000    0.0000 C   0  0  0  0  0  0  0  0  0  0  0  0
    3.3481    4.7010    0.0000 C   0  0  0  0  0  0  0  0  0  0  0  0
    4.8481    4.7010    0.0000 C   0  0  0  0  0  0  0  0  0  0  0  0
    3.8971    6.7500    0.0000 C   0  0  0  0  0  0  0  0  0  0  0  0
    3.8971    8.2500    0.0000 C   0  0  0  0  0  0  0  0  0  0  0  0
    5.1962    9.0000    0.0000 C   0  0  0  0  0  0  0  0  0  0  0  0
    1.8481    7.2990    0.0000 C   0  0  0  0  0  0  0  0  0  0  0  0
    2.5981    8.5981    0.0000 C   0  0  0  0  0  0  0  0  0  0  0  0
    1.8481    9.8971    0.0000 C   0  0  0  0  0  0  0  0  0  0  0  0
    4.0981    8.5981    0.0000 C   0  0  0  0  0  0  0  0  0  0  0  0
    4.8481    9.8971    0.0000 C   0  0  0  0  0  0  0  0  0  0  0  0
    6.3481    9.8971    0.0000 C   0  0  0  0  0  0  0  0  0  0  0  0
    7.0981   11.1962    0.0000 C   0  0  0  0  0  0  0  0  0  0  0  0
    7.8481   12.4952    0.0000 C   0  0  0  0  0  0  0  0  0  0  0  0
    8.5981   13.7942    0.0000 C   0  0  0  0  0  0  0  0  0  0  0  0
    9.3481   15.0933    0.0000 C   0  0  0  0  0  0  0  0  0  0  0  0
   10.0981   16.3923    0.0000 C   0  0  0  0  0  0  0  0  0  0  0  0
   11.5981   16.3923    0.0000 C   0  0  0  0  0  0  0  0  0  0  0  0
   12.3481   17.6913    0.0000 C   0  0  0  0  0  0  0  0  0  0  0  0
    3.8971    3.7500    0.0000 C   0  0  0  0  0  0  0  0  0  0  0  0
    3.8971    5.2500    0.0000 C   0  0  0  0  0  0  0  0  0  0  0  0
    5.1962    6.0000    0.0000 C   0  0  0  0  0  0  0  0  0  0  0  0
  1  2  2  0
  2  3  2  0
  3  4  1  0
  4  5  1  0
  5  6  2  3
  6  7  1  0
  7  8  1  0
  8  9  2  0
  8 10  1  0
 10 11  2  0
 10 12  1  0
 12 13  1  0
  6 14  1  0
 14 15  1  0
 15 16  2  0
 14 17  1  0
 17 18  2  3
 18 19  1  0
 14 20  1  0
 20 21  1  0
 21 22  2  0
 21 23  1  0
 23 24  1  0
 24 25  1  0
 25 26  2  0
 26 27  2  0
 27 28  2  0
 28 29  2  0
 29 30  2  0
 30 31  1  0
 31 32  2  0
  4 33  1  0
 33 34  1  0
 34 35  1  0
M  END
