
     RDKit          2D

 40 39  0  0  0  0  0  0  0  0999 V2000
    0.0000    0.0000    0.0000 C   0  0  0  0  0  0  0  0  0  0  0  0
    1.2990    0.7500    0.0000 C   0  0  0  0  0  0  0  0  0  0  0  0
    2.5981    1.5000    0.0000 C   0  0  0  0  0  0  0  0  0  0  0  0
    3.8971    2.2500    0.0000 C   0  0  0  0  0  0  0  0  0  0  0  0
    5.1962    1.5000    0.0000 C   0  0  0  0  0  0  0  0  0  0  0  0
    6.4952    2.2500    0.0000 C   0  0  0  0  0  0  0  0  0  0  0  0
    7.7942    1.5000    0.0000 C   0  0  0  0  0  0  0  0  0  0  0  0
    7.0442    0.2010    0.0000 C   0  0  0  0  0  0  0  0  0  0  0  0
    7.7942   -1.0981    0.0000 C   0  0  0  0  0  0  0  0  0  0  0  0
    8.5442    2.7990    0.0000 C   0  0  0  0  0  0  0  0  0  0  0  0
   10.0442    2.7990    0.0000 C   0  0  0  0  0  0  0  0  0  0  0  0
   10.7942    4.0981    0.0000 C   0  0  0  0  0  0  0  0  0  0  0  0
   12.2942    4.0981    0.0000 C   0  0  0  0  0  0  0  0  0  0  0  0
   13.0442    5.3971    0.0000 C   0  0  0  0  0  0  0  0  0  0  0  0
   14.5442    5.3971    0.0000 C   0  0  0  0  0  0  0  0  0  0  0  0
   12.2942    6.6962    0.0000 C   0  0  0  0  0  0  0  0  0  0  0  0
   10.9952    5.9462    0.0000 C   0  0  0  0  0  0  0  0  0  0  0  0
    9.6962    6.6962    0.0000 C   0  0  0  0  0  0  0  0  0  0  0  0
   11.5442    7.9952    0.0000 C   0  0  0  0  0  0  0  0  0  0  0  0
   10.0442    7.9952    0.0000 C   0  0  0  0  0  0  0  0  0  0  0  0
    9.2942    9.2942    0.0000 C   0  0  0  0  0  0  0  0  0  0  0  0
   13.5933    7.4462    0.0000 C   0  0  0  0  0  0  0  0  0  0  0  0
   13.5933    8.9462    0.0000 C   0  0  0  0  0  0  0  0  0  0  0  0
    9.0933    0.7500    0.0000 C   0  0  0  0  0  0  0  0  0  0  0  0
    9.0933   -0.7500    0.0000 C   0  0  0  0  0  0  0  0  0  0  0  0
   10.3923   -1.5000    0.0000 C   0  0  0  0  0  0  0  0  0  0  0  0
   10.3923   -3.0000    0.0000 C   0  0  0  0  0  0  0  0  0  0  0  0
   11.6913   -0.7500    0.0000 C   0  0  0  0  0  0  0  0  0  0  0  0
   12.9904   -1.5000    0.0000 C   0  0  0  0  0  0  0  0  0  0  0  0
   14.2894   -2.2500    0.0000 C   0  0  0  0  0  0  0  0  0  0  0  0
   14.2894   -3.7500    0.0000 C   0  0  0  0  0  0  0  0  0  0  0  0
   15.5885   -4.5000    0.0000 C   0  0  0  0  0  0  0  0  0  0  0  0
   15.5885   -6.0000    0.0000 C   0  0  0  0  0  0  0  0  0  0  0  0
   16.8875   -6.7500    0.0000 C   0  0  0  0  0  0  0  0  0  0  0  0
   16.8875   -8.2500    0.0000 C   0  0  0  0  0  0  0  0  0  0  0  0
   18.1865   -6.0000    0.0000 C   0  0  0  0  0  0  0  0  0  0  0  0
   19.4856   -6.7500    0.0000 C   0  0  0  0  0  0  0  0  0  0  0  0
   18.1865   -4.5000    0.0000 C   0  0  0  0  0  0  0  0  0  0  0  0
   16.8875   -3.7500    0.0000 C   0  0  0  0  0  0  0  0  0  0  0  0
   19.4856   -3.7500    0.0000 C   0  0  0  0  0  0  0  0  0  0  0  0
  1  2  2  0
  2  3  2  0
  3  4  2  0
  4  5  1  0
  5  6  2  3
  6  7  1  0
  7  8  1  0
  8  9  2  0
  7 10  1  0
 10 11  2  3
 11 12  1  0
 12 13  2  3
 13 14  1  0
 14 15  2  0
 14 16  1  0
 16 17  1  0
 17 18  2  0
 16 19  1  0
 19 20  2  3
 20 21  1  0
 16 22  1  0
 22 23  1  0
  7 24  1  0
 24 25  2  3
 25 26  1  0
 26 27  2  0
 26 28  1  0
 28 29  2  0
 29 30  2  0
 30 31  1  0
 31 32  1  0
 32 33  1  0
 33 34  1  0
 34 35  1  0
 34 36  2  3
 36 37  1  0
 36 38  1  0
 38 39  2  0
 38 40  1  0
M  END
