
     RDKit          2D

 40 39  0  0  0  0  0  0  0  0999 V2000
   -5.1962    9.0000    0.0000 C   0  0  0  0  0  0  0  0  0  0  0  0
   -3.8971    9.7500    0.0000 C   0  0  0  0  0  0  0  0  0  0  0  0
   -2.5981   10.5000    0.0000 C   0  0  0  0  0  0  0  0  0  0  0  0
   -1.2990    9.7500    0.0000 C   0  0  0  0  0  0  0  0  0  0  0  0
    0.0000   10.5000    0.0000 C   0  0  0  0  0  0  0  0  0  0  0  0
   -1.2990    8.2500    0.0000 C   0  0  0  0  0  0  0  0  0  0  0  0
    0.0000    7.5000    0.0000 C   0  0  0  0  0  0  0  0  0  0  0  0
    1.2990    6.7500    0.0000 C   0  0  0  0  0  0  0  0  0  0  0  0
    2.5981    7.5000    0.0000 C   0  0  0  0  0  0  0  0  0  0  0  0
    3.8971    8.2500    0.0000 C   0  0  0  0  0  0  0  0  0  0  0  0
    5.1962    7.5000    0.0000 C   0  0  0  0  0  0  0  0  0  0  0  0
    1.8481    8.7990    0.0000 C   0  0  0  0  0  0  0  0  0  0  0  0
    0.3481    8.7990    0.0000 C   0  0  0  0  0  0  0  0  0  0  0  0
   -0.9618    9.1257    0.0000 C   0  0  0  0  0  0  0  0  0  0  0  0
    2.5981   10.0981    0.0000 C   0  0  0  0  0  0  0  0  0  0  0  0
    1.8481   11.3971    0.0000 C   0  0  0  0  0  0  0  0  0  0  0  0
    4.0981   10.0981    0.0000 C   0  0  0  0  0  0  0  0  0  0  0  0
    4.8481    8.7990    0.0000 C   0  0  0  0  0  0  0  0  0  0  0  0
    6.3481    8.7990    0.0000 C   0  0  0  0  0  0  0  0  0  0  0  0
    7.8481    8.7990    0.0000 C   0  0  0  0  0  0  0  0  0  0  0  0
    9.3481    8.7990    0.0000 C   0  0  0  0  0  0  0  0  0  0  0  0
   10.0981    7.5000    0.0000 C   0  0  0  0  0  0  0  0  0  0  0  0
   11.5981    7.5000    0.0000 C   0  0  0  0  0  0  0  0  0  0  0  0
   12.3481    6.2010    0.0000 C   0  0  0  0  0  0  0  0  0  0  0  0
    4.8481   11.3971    0.0000 C   0  0  0  0  0  0  0  0  0  0  0  0
    6.3481   11.3971    0.0000 C   0  0  0  0  0  0  0  0  0  0  0  0
    3.3481    6.2010    0.0000 C   0  0  0  0  0  0  0  0  0  0  0  0
    4.8481    6.2010    0.0000 C   0  0  0  0  0  0  0  0  0  0  0  0
    5.5981    4.9019    0.0000 C   0  0  0  0  0  0  0  0  0  0  0  0
    7.0981    4.9019    0.0000 C   0  0  0  0  0  0  0  0  0  0  0  0
    2.5981    4.9019    0.0000 C   0  0  0  0  0  0  0  0  0  0  0  0
    3.3481    3.6029    0.0000 C   0  0  0  0  0  0  0  0  0  0  0  0
    4.8481    3.6029    0.0000 C   0  0  0  0  0  0  0  0  0  0  0  0
    5.5981    2.3038    0.0000 C   0  0  0  0  0  0  0  0  0  0  0  0
    1.0981    4.9019    0.0000 C   0  0  0  0  0  0  0  0  0  0  0  0
    0.3481    3.6029    0.0000 C   0  0  0  0  0  0  0  0  0  0  0  0
    0.3481    6.2010    0.0000 C   0  0  0  0  0  0  0  0  0  0  0  0
   -1.1519    6.2010    0.0000 C   0  0  0  0  0  0  0  0  0  0  0  0
   -1.9019    7.5000    0.0000 C   0  0  0  0  0  0  0  0  0  0  0  0
   -3.4019    7.5000    0.0000 C   0  0  0  0  0  0  0  0  0  0  0  0
  1  2  2  0
  2  3  2  0
  3  4  1  0
  4  5  1  0
  4  6  1  0
  6  7  2  0
  7  8  2  0
  8  9  1  0
  9 10  1  0
 10 11  2  0
  9 12  1  0
 12 13  2  0
 13 14  2  0
 12 15  1  0
 15 16  1  0
 15 17  1  0
 17 18  1  0
 18 19  2  0
 19 20  2  0
 20 21  2  0
 21 22  1  0
 22 23  2  3
 23 24  1  0
 17 25  2  3
 25 26  1  0
  9 27  1  0
 27 28  2  3
 28 29  1  0
 29 30  1  0
 27 31  1  0
 31 32  2  3
 32 33  1  0
 33 34  1  0
 31 35  1  0
 35 36  1  0
 35 37  1  0
 37 38  2  3
 38 39  1  0
 39 40  2  0
M  END
