
     RDKit          2D

 40 39  0  0  0  0  0  0  0  0999 V2000
    0.0000    7.0981    0.0000 C   0  0  0  0  0  0  0  0  0  0  0  0
    1.2990    6.3481    0.0000 C   0  0  0  0  0  0  0  0  0  0  0  0
    2.5981    5.5981    0.0000 C   0  0  0  0  0  0  0  0  0  0  0  0
    3.8971    4.8481    0.0000 C   0  0  0  0  0  0  0  0  0  0  0  0
    5.1962    4.0981    0.0000 C   0  0  0  0  0  0  0  0  0  0  0  0
    5.1962    2.5981    0.0000 C   0  0  0  0  0  0  0  0  0  0  0  0
    6.4952    1.8481    0.0000 C   0  0  0  0  0  0  0  0  0  0  0  0
    6.4952    4.8481    0.0000 C   0  0  0  0  0  0  0  0  0  0  0  0
    5.7452    6.1471    0.0000 C   0  0  0  0  0  0  0  0  0  0  0  0
    7.7942    5.5981    0.0000 C   0  0  0  0  0  0  0  0  0  0  0  0
    7.7942    7.0981    0.0000 C   0  0  0  0  0  0  0  0  0  0  0  0
    9.0933    7.8481    0.0000 C   0  0  0  0  0  0  0  0  0  0  0  0
    9.0933    9.3481    0.0000 C   0  0  0  0  0  0  0  0  0  0  0  0
   10.3923    7.0981    0.0000 C   0  0  0  0  0  0  0  0  0  0  0  0
   11.6913    6.3481    0.0000 C   0  0  0  0  0  0  0  0  0  0  0  0
   12.9904    5.5981    0.0000 C   0  0  0  0  0  0  0  0  0  0  0  0
   14.2894    4.8481    0.0000 C   0  0  0  0  0  0  0  0  0  0  0  0
   14.2894    3.3481    0.0000 C   0  0  0  0  0  0  0  0  0  0  0  0
    7.2452    3.5490    0.0000 C   0  0  0  0  0  0  0  0  0  0  0  0
    8.7452    3.5490    0.0000 C   0  0  0  0  0  0  0  0  0  0  0  0
    9.4952    4.8481    0.0000 C   0  0  0  0  0  0  0  0  0  0  0  0
    9.4952    2.2500    0.0000 C   0  0  0  0  0  0  0  0  0  0  0  0
   10.9952    2.2500    0.0000 C   0  0  0  0  0  0  0  0  0  0  0  0
   11.7452    0.9510    0.0000 C   0  0  0  0  0  0  0  0  0  0  0  0
    8.7452    0.9510    0.0000 C   0  0  0  0  0  0  0  0  0  0  0  0
    9.4952   -0.3481    0.0000 C   0  0  0  0  0  0  0  0  0  0  0  0
    7.2452    0.9510    0.0000 C   0  0  0  0  0  0  0  0  0  0  0  0
    6.4952   -0.3481    0.0000 C   0  0  0  0  0  0  0  0  0  0  0  0
    5.7452   -1.6471    0.0000 C   0  0  0  0  0  0  0  0  0  0  0  0
    6.4952   -2.9462    0.0000 C   0  0  0  0  0  0  0  0  0  0  0  0
    5.7452   -4.2452    0.0000 C   0  0  0  0  0  0  0  0  0  0  0  0
    6.4952   -5.5442    0.0000 C   0  0  0  0  0  0  0  0  0  0  0  0
    5.7452   -6.8433    0.0000 C   0  0  0  0  0  0  0  0  0  0  0  0
    6.4952   -8.1423    0.0000 C   0  0  0  0  0  0  0  0  0  0  0  0
    4.2452   -6.8433    0.0000 C   0  0  0  0  0  0  0  0  0  0  0  0
    3.4952   -8.1423    0.0000 C   0  0  0  0  0  0  0  0  0  0  0  0
    1.9952   -8.1423    0.0000 C   0  0  0  0  0  0  0  0  0  0  0  0
    4.2452   -9.4413    0.0000 C   0  0  0  0  0  0  0  0  0  0  0  0
    7.9952   -2.9462    0.0000 C   0  0  0  0  0  0  0  0  0  0  0  0
    8.7452   -4.2452    0.0000 C   0  0  0  0  0  0  0  0  0  0  0  0
  1  2  2  0
  2  3  2  0
  3  4  2  0
  4  5  2  0
  5  6  1  0
  6  7  1  0
  5  8  1  0
  8  9  1  0
  8 10  1  0
 10 11  2  3
 11 12  1  0
 12 13  1  0
 12 14  2  0
 14 15  2  0
 15 16  2  0
 16 17  2  0
 17 18  1  0
  8 19  1  0
 19 20  1  0
 20 21  2  0
 20 22  1  0
 22 23  1  0
 23 24  2  0
 22 25  1  0
 25 26  1  0
 25 27  1  0
 27 28  2  0
 28 29  2  0
 29 30  1  0
 30 31  1  0
 31 32  2  3
 32 33  1  0
 33 34  1  0
 33 35  1  0
 35 36  2  0
 36 37  1  0
 36 38  1  0
 30 39  2  3
 39 40  1  0
M  END
