
     RDKit          2D

 40 39  0  0  0  0  0  0  0  0999 V2000
    0.0000    1.9019    0.0000 C   0  0  0  0  0  0  0  0  0  0  0  0
    1.2990    1.1519    0.0000 C   0  0  0  0  0  0  0  0  0  0  0  0
    2.5981    0.4019    0.0000 C   0  0  0  0  0  0  0  0  0  0  0  0
    3.8971   -0.3481    0.0000 C   0  0  0  0  0  0  0  0  0  0  0  0
    5.1962    0.4019    0.0000 C   0  0  0  0  0  0  0  0  0  0  0  0
    6.4952   -0.3481    0.0000 C   0  0  0  0  0  0  0  0  0  0  0  0
    7.7942   -1.0981    0.0000 C   0  0  0  0  0  0  0  0  0  0  0  0
    7.2452    0.9510    0.0000 C   0  0  0  0  0  0  0  0  0  0  0  0
    8.7452    0.9510    0.0000 C   0  0  0  0  0  0  0  0  0  0  0  0
   10.2452    0.9510    0.0000 C   0  0  0  0  0  0  0  0  0  0  0  0
   10.9952   -0.3481    0.0000 C   0  0  0  0  0  0  0  0  0  0  0  0
   12.4952   -0.3481    0.0000 C   0  0  0  0  0  0  0  0  0  0  0  0
   13.2452   -1.6471    0.0000 C   0  0  0  0  0  0  0  0  0  0  0  0
   14.7452   -1.6471    0.0000 C   0  0  0  0  0  0  0  0  0  0  0  0
   13.2452    0.9510    0.0000 C   0  0  0  0  0  0  0  0  0  0  0  0
   14.7452    0.9510    0.0000 C   0  0  0  0  0  0  0  0  0  0  0  0
   15.4952   -0.3481    0.0000 C   0  0  0  0  0  0  0  0  0  0  0  0
   16.9952   -0.3481    0.0000 C   0  0  0  0  0  0  0  0  0  0  0  0
   17.7452    0.9510    0.0000 C   0  0  0  0  0  0  0  0  0  0  0  0
   19.2452    0.9510    0.0000 C   0  0  0  0  0  0  0  0  0  0  0  0
   20.7452    0.9510    0.0000 C   0  0  0  0  0  0  0  0  0  0  0  0
   17.7452   -1.6471    0.0000 C   0  0  0  0  0  0  0  0  0  0  0  0
   19.2452   -1.6471    0.0000 C   0  0  0  0  0  0  0  0  0  0  0  0
   19.9952   -2.9462    0.0000 C   0  0  0  0  0  0  0  0  0  0  0  0
   21.4952   -2.9462    0.0000 C   0  0  0  0  0  0  0  0  0  0  0  0
   15.4952    2.2500    0.0000 C   0  0  0  0  0  0  0  0  0  0  0  0
   16.9952    2.2500    0.0000 C   0  0  0  0  0  0  0  0  0  0  0  0
   17.7452    3.5490    0.0000 C   0  0  0  0  0  0  0  0  0  0  0  0
   14.7452    3.5490    0.0000 C   0  0  0  0  0  0  0  0  0  0  0  0
   15.4952    4.8481    0.0000 C   0  0  0  0  0  0  0  0  0  0  0  0
   14.7452    6.1471    0.0000 C   0  0  0  0  0  0  0  0  0  0  0  0
   15.4952    7.4462    0.0000 C   0  0  0  0  0  0  0  0  0  0  0  0
   14.7452    8.7452    0.0000 C   0  0  0  0  0  0  0  0  0  0  0  0
   16.9952    7.4462    0.0000 C   0  0  0  0  0  0  0  0  0  0  0  0
   17.7452    8.7452    0.0000 C   0  0  0  0  0  0  0  0  0  0  0  0
   19.2452    8.7452    0.0000 C   0  0  0  0  0  0  0  0  0  0  0  0
    5.7452   -1.6471    0.0000 C   0  0  0  0  0  0  0  0  0  0  0  0
    6.4952   -2.9462    0.0000 C   0  0  0  0  0  0  0  0  0  0  0  0
    5.7452   -4.2452    0.0000 C   0  0  0  0  0  0  0  0  0  0  0  0
    7.9952   -2.9462    0.0000 C   0  0  0  0  0  0  0  0  0  0  0  0
  1  2  2  0
  2  3  2  0
  3  4  2  0
  4  5  1  0
  5  6  1  0
  6  7  1  0
  6  8  1  0
  8  9  2  0
  9 10  2  0
 10 11  1  0
 11 12  1  0
 12 13  2  3
 13 14  1  0
 12 15  1  0
 15 16  2  3
 16 17  1  0
 17 18  1  0
 18 19  1  0
 19 20  2  0
 20 21  2  0
 18 22  2  3
 22 23  1  0
 23 24  1  0
 24 25  2  0
 16 26  1  0
 26 27  1  0
 27 28  2  0
 26 29  1  0
 29 30  2  3
 30 31  1  0
 31 32  2  3
 32 33  1  0
 32 34  1  0
 34 35  2  3
 35 36  1  0
  6 37  1  0
 37 38  2  0
 38 39  1  0
 38 40  1  0
M  END
