001_coconut
     RDKit          2D

 27 26  0  0  0  0  0  0  0  0999 V2000
  -13.8972    0.9771    0.0000 C   0  0  0  0  0  0  0  0  0  0  0  0
  -12.4879    1.4908    0.0000 C   0  0  0  0  0  0  0  0  0  0  0  0
  -11.3384    0.5272    0.0000 C   0  0  0  0  0  0  0  0  0  0  0  0
   -9.9291    1.0409    0.0000 C   0  0  0  0  0  0  0  0  0  0  0  0
   -8.7795    0.0772    0.0000 C   0  0  0  0  0  0  0  0  0  0  0  0
   -7.3702    0.5909    0.0000 C   0  0  0  0  0  0  0  0  0  0  0  0
   -6.2207   -0.3727    0.0000 C   0  0  0  0  0  0  0  0  0  0  0  0
   -4.8114    0.1410    0.0000 C   0  0  0  0  0  0  0  0  0  0  0  0
   -3.6619   -0.8227    0.0000 C   0  0  0  0  0  0  0  0  0  0  0  0
   -2.2526   -0.3090    0.0000 C   0  0  0  0  0  0  0  0  0  0  0  0
   -1.9928    1.1683    0.0000 O   0  0  0  0  0  0  0  0  0  0  0  0
   -1.1031   -1.2726    0.0000 O   0  0  0  0  0  0  0  0  0  0  0  0
    0.3062   -0.7589    0.0000 C   0  0  0  0  0  0  0  0  0  0  0  0
    1.4557   -1.7226    0.0000 C   0  0  0  0  0  0  0  0  0  0  0  0
    1.1959   -3.1999    0.0000 O   0  0  0  0  0  0  0  0  0  0  0  0
    2.8650   -1.2089    0.0000 C   0  0  0  0  0  0  0  0  0  0  0  0
    4.0145   -2.1725    0.0000 O   0  0  0  0  0  0  0  0  0  0  0  0
    5.4238   -1.6589    0.0000 P   0  0  0  0  0  0  0  0  0  0  0  0
    5.9375   -3.0682    0.0000 O   0  0  0  0  0  0  0  0  0  0  0  0
    4.9101   -0.2496    0.0000 O   0  0  0  0  0  0  0  0  0  0  0  0
    6.8331   -1.1452    0.0000 O   0  0  0  0  0  0  0  0  0  0  0  0
    7.0929    0.3322    0.0000 C   0  0  0  0  0  0  0  0  0  0  0  0
    8.5022    0.8459    0.0000 C   0  0  0  0  0  0  0  0  0  0  0  0
    8.7620    2.3232    0.0000 N   0  0  0  0  0  0  0  0  0  0  0  0
   10.2393    2.0634    0.0000 C   0  0  0  0  0  0  0  0  0  0  0  0
    7.2847    2.5830    0.0000 C   0  0  0  0  0  0  0  0  0  0  0  0
    9.0218    3.8005    0.0000 C   0  0  0  0  0  0  0  0  0  0  0  0
  1  2  1  0
  2  3  1  0
  3  4  1  0
  4  5  1  0
  5  6  1  0
  6  7  1  0
  7  8  1  0
  8  9  1  0
  9 10  1  0
 10 11  2  0
 10 12  1  0
 12 13  1  0
 13 14  1  0
 14 15  1  6
 14 16  1  0
 16 17  1  0
 17 18  1  0
 18 19  2  0
 18 20  1  0
 18 21  1  0
 21 22  1  0
 22 23  1  0
 23 24  1  0
 24 25  1  0
 24 26  1  0
 24 27  1  0
M  CHG  2  20  -1  24   1
M  END
