002_coconut
     RDKit          2D

 17 16  0  0  0  0  0  0  0  0999 V2000
    9.2363    0.6453    0.0000 C   0  0  0  0  0  0  0  0  0  0  0  0
    7.9504   -0.1271    0.0000 C   0  0  0  0  0  0  0  0  0  0  0  0
    7.9764   -1.6269    0.0000 O   0  0  0  0  0  0  0  0  0  0  0  0
    6.6386    0.6003    0.0000 N   0  0  0  0  0  0  0  0  0  0  0  0
    5.3528   -0.1721    0.0000 C   0  0  0  0  0  0  0  0  0  0  0  0
    4.0409    0.5553    0.0000 C   0  0  0  0  0  0  0  0  0  0  0  0
    2.7551   -0.2170    0.0000 C   0  0  0  0  0  0  0  0  0  0  0  0
    1.4432    0.5104    0.0000 N   0  0  0  0  0  0  0  0  0  0  0  0
    0.1574   -0.2620    0.0000 C   0  0  0  0  0  0  0  0  0  0  0  0
   -1.1544    0.4654    0.0000 C   0  0  0  0  0  0  0  0  0  0  0  0
   -2.4403   -0.3070    0.0000 C   0  0  0  0  0  0  0  0  0  0  0  0
   -3.7521    0.4204    0.0000 C   0  0  0  0  0  0  0  0  0  0  0  0
   -5.0380   -0.3520    0.0000 N   0  0  0  0  0  0  0  0  0  0  0  0
   -6.3498    0.3754    0.0000 C   0  0  0  0  0  0  0  0  0  0  0  0
   -7.6357   -0.3970    0.0000 C   0  0  0  0  0  0  0  0  0  0  0  0
   -8.9475    0.3304    0.0000 C   0  0  0  0  0  0  0  0  0  0  0  0
  -10.2334   -0.4419    0.0000 N   0  0  0  0  0  0  0  0  0  0  0  0
  1  2  1  0
  2  3  2  0
  2  4  1  0
  4  5  1  0
  5  6  1  0
  6  7  1  0
  7  8  1  0
  8  9  1  0
  9 10  1  0
 10 11  1  0
 11 12  1  0
 12 13  1  0
 13 14  1  0
 14 15  1  0
 15 16  1  0
 16 17  1  0
M  END
