004_coconut
     RDKit          2D

 18 17  0  0  0  0  0  0  0  0999 V2000
   -6.3645   -0.7216    0.0000 C   0  0  0  0  0  0  0  0  0  0  0  0
   -4.9753   -0.1559    0.0000 C   0  0  0  0  0  0  0  0  0  0  0  0
   -4.7706    1.3301    0.0000 O   0  0  0  0  0  0  0  0  0  0  0  0
   -3.7907   -1.0761    0.0000 N   0  0  0  0  0  0  0  0  0  0  0  0
   -2.4015   -0.5104    0.0000 C   0  0  0  0  0  0  0  0  0  0  0  0
   -1.2170   -1.4307    0.0000 C   0  0  0  0  0  0  0  0  0  0  0  0
    0.1723   -0.8649    0.0000 C   0  0  0  0  0  0  0  0  0  0  0  0
    1.3568   -1.7852    0.0000 C   0  0  0  0  0  0  0  0  0  0  0  0
    2.7460   -1.2195    0.0000 C   0  0  0  0  0  0  0  0  0  0  0  0
    3.9306   -2.1397    0.0000 O   0  0  0  0  0  0  0  0  0  0  0  0
    2.9507    0.2665    0.0000 O   0  0  0  0  0  0  0  0  0  0  0  0
    4.3399    0.8322    0.0000 P   0  0  0  0  0  0  0  0  0  0  0  0
    3.7742    2.2215    0.0000 O   0  0  0  0  0  0  0  0  0  0  0  0
    4.9057   -0.5570    0.0000 O   0  0  0  0  0  0  0  0  0  0  0  0
    5.7292    1.3980    0.0000 O   0  0  0  0  0  0  0  0  0  0  0  0
   -2.1968    0.9756    0.0000 C   0  0  0  0  0  0  0  0  0  0  0  0
   -3.3814    1.8958    0.0000 O   0  0  0  0  0  0  0  0  0  0  0  0
   -0.8076    1.5413    0.0000 O   0  0  0  0  0  0  0  0  0  0  0  0
  1  2  1  0
  2  3  2  0
  2  4  1  0
  4  5  1  0
  5  6  1  0
  6  7  1  0
  7  8  1  0
  8  9  1  0
  9 10  2  0
  9 11  1  0
 11 12  1  0
 12 13  2  0
 12 14  1  0
 12 15  1  0
  5 16  1  0
 16 17  2  0
 16 18  1  0
M  END
