005_coconut
     RDKit          2D

 30 29  0  0  0  0  0  0  0  0999 V2000
  -12.9218   -2.1692    0.0000 C   0  0  0  0  0  0  0  0  0  0  0  0
  -11.4378   -1.9502    0.0000 C   0  0  0  0  0  0  0  0  0  0  0  0
  -10.5063   -3.1259    0.0000 C   0  0  0  0  0  0  0  0  0  0  0  0
  -10.8855   -0.5556    0.0000 C   0  0  0  0  0  0  0  0  0  0  0  0
   -9.4016   -0.3367    0.0000 C   0  0  0  0  0  0  0  0  0  0  0  0
   -8.8492    1.0579    0.0000 C   0  0  0  0  0  0  0  0  0  0  0  0
   -7.3653    1.2769    0.0000 C   0  0  0  0  0  0  0  0  0  0  0  0
   -6.8129    2.6715    0.0000 C   0  0  0  0  0  0  0  0  0  0  0  0
   -6.4337    0.1012    0.0000 C   0  0  0  0  0  0  0  0  0  0  0  0
   -4.9497    0.3202    0.0000 C   0  0  0  0  0  0  0  0  0  0  0  0
   -4.0182   -0.8555    0.0000 C   0  0  0  0  0  0  0  0  0  0  0  0
   -2.5342   -0.6365    0.0000 C   0  0  0  0  0  0  0  0  0  0  0  0
   -1.6027   -1.8122    0.0000 C   0  0  0  0  0  0  0  0  0  0  0  0
   -1.9819    0.7581    0.0000 C   0  0  0  0  0  0  0  0  0  0  0  0
   -0.4979    0.9770    0.0000 C   0  0  0  0  0  0  0  0  0  0  0  0
    0.0544    2.3716    0.0000 C   0  0  0  0  0  0  0  0  0  0  0  0
    1.5383    2.5906    0.0000 C   0  0  0  0  0  0  0  0  0  0  0  0
    2.0907    3.9852    0.0000 C   0  0  0  0  0  0  0  0  0  0  0  0
    2.4699    1.4149    0.0000 C   0  0  0  0  0  0  0  0  0  0  0  0
    3.9539    1.6339    0.0000 C   0  0  0  0  0  0  0  0  0  0  0  0
    4.8854    0.4582    0.0000 O   0  0  0  0  0  0  0  0  0  0  0  0
    6.3694    0.6771    0.0000 C   0  0  0  0  0  0  0  0  0  0  0  0
    7.3010   -0.4985    0.0000 C   0  0  0  0  0  0  0  0  0  0  0  0
    6.7486   -1.8931    0.0000 O   0  0  0  0  0  0  0  0  0  0  0  0
    8.7849   -0.2796    0.0000 C   0  0  0  0  0  0  0  0  0  0  0  0
    9.7165   -1.4552    0.0000 O   0  0  0  0  0  0  0  0  0  0  0  0
   11.2004   -1.2363    0.0000 P   0  0  0  0  0  0  0  0  0  0  0  0
   11.4194   -2.7202    0.0000 O   0  0  0  0  0  0  0  0  0  0  0  0
   10.9815    0.2477    0.0000 O   0  0  0  0  0  0  0  0  0  0  0  0
   12.6843   -1.0173    0.0000 O   0  0  0  0  0  0  0  0  0  0  0  0
  1  2  1  0
  2  3  1  0
  2  4  2  0
  4  5  1  0
  5  6  1  0
  6  7  1  0
  7  8  1  0
  7  9  2  3
  9 10  1  0
 10 11  1  0
 11 12  1  0
 12 13  1  0
 12 14  2  3
 14 15  1  0
 15 16  1  0
 16 17  1  0
 17 18  1  0
 17 19  2  3
 19 20  1  0
 20 21  1  0
 21 22  1  0
 22 23  1  0
 23 24  1  0
 23 25  1  0
 25 26  1  0
 26 27  1  0
 27 28  2  0
 27 29  1  0
 27 30  1  0
M  END
