006_coconut
     RDKit          2D

 23 22  0  0  0  0  0  0  0  0999 V2000
   11.2955    0.5321    0.0000 C   0  0  0  0  0  0  0  0  0  0  0  0
    9.9972   -0.2191    0.0000 C   0  0  0  0  0  0  0  0  0  0  0  0
    9.9985   -1.7191    0.0000 O   0  0  0  0  0  0  0  0  0  0  0  0
    8.6974    0.5297    0.0000 C   0  0  0  0  0  0  0  0  0  0  0  0
    7.3991   -0.2215    0.0000 C   0  0  0  0  0  0  0  0  0  0  0  0
    6.0993    0.5273    0.0000 C   0  0  0  0  0  0  0  0  0  0  0  0
    4.8010   -0.2239    0.0000 C   0  0  0  0  0  0  0  0  0  0  0  0
    4.8024   -1.7239    0.0000 O   0  0  0  0  0  0  0  0  0  0  0  0
    3.5013    0.5250    0.0000 C   0  0  0  0  0  0  0  0  0  0  0  0
    3.4999    2.0250    0.0000 O   0  0  0  0  0  0  0  0  0  0  0  0
    2.2029   -0.2262    0.0000 C   0  0  0  0  0  0  0  0  0  0  0  0
    0.9032    0.5226    0.0000 C   0  0  0  0  0  0  0  0  0  0  0  0
   -0.3951   -0.2286    0.0000 C   0  0  0  0  0  0  0  0  0  0  0  0
   -1.6949    0.5202    0.0000 C   0  0  0  0  0  0  0  0  0  0  0  0
   -2.9932   -0.2310    0.0000 C   0  0  0  0  0  0  0  0  0  0  0  0
   -4.2930    0.5178    0.0000 C   0  0  0  0  0  0  0  0  0  0  0  0
   -5.5913   -0.2334    0.0000 C   0  0  0  0  0  0  0  0  0  0  0  0
   -6.8910    0.5154    0.0000 C   0  0  0  0  0  0  0  0  0  0  0  0
   -8.1894   -0.2358    0.0000 C   0  0  0  0  0  0  0  0  0  0  0  0
   -9.4891    0.5130    0.0000 C   0  0  0  0  0  0  0  0  0  0  0  0
  -10.7875   -0.2382    0.0000 C   0  0  0  0  0  0  0  0  0  0  0  0
  -10.7861   -1.7382    0.0000 O   0  0  0  0  0  0  0  0  0  0  0  0
  -12.0872    0.5106    0.0000 O   0  0  0  0  0  0  0  0  0  0  0  0
  1  2  1  0
  2  3  1  0
  2  4  1  0
  4  5  1  0
  5  6  1  0
  6  7  1  0
  7  8  1  0
  7  9  1  0
  9 10  1  0
  9 11  1  0
 11 12  1  0
 12 13  2  3
 13 14  1  0
 14 15  1  0
 15 16  1  0
 16 17  1  0
 17 18  1  0
 18 19  1  0
 19 20  1  0
 20 21  1  0
 21 22  2  0
 21 23  1  0
M  END
