007_coconut
     RDKit          2D

 23 22  0  0  0  0  0  0  0  0999 V2000
  -13.6755   -0.2645    0.0000 C   0  0  0  0  0  0  0  0  0  0  0  0
  -12.3626    0.4609    0.0000 C   0  0  0  0  0  0  0  0  0  0  0  0
  -11.0779   -0.3134    0.0000 C   0  0  0  0  0  0  0  0  0  0  0  0
   -9.7650    0.4121    0.0000 C   0  0  0  0  0  0  0  0  0  0  0  0
   -8.4803   -0.3623    0.0000 C   0  0  0  0  0  0  0  0  0  0  0  0
   -7.1674    0.3632    0.0000 C   0  0  0  0  0  0  0  0  0  0  0  0
   -5.8827   -0.4111    0.0000 C   0  0  0  0  0  0  0  0  0  0  0  0
   -4.5698    0.3143    0.0000 C   0  0  0  0  0  0  0  0  0  0  0  0
   -3.2851   -0.4600    0.0000 C   0  0  0  0  0  0  0  0  0  0  0  0
   -1.9722    0.2654    0.0000 C   0  0  0  0  0  0  0  0  0  0  0  0
   -0.6875   -0.5089    0.0000 C   0  0  0  0  0  0  0  0  0  0  0  0
    0.6255    0.2165    0.0000 C   0  0  0  0  0  0  0  0  0  0  0  0
    1.9102   -0.5578    0.0000 C   0  0  0  0  0  0  0  0  0  0  0  0
    3.2231    0.1677    0.0000 C   0  0  0  0  0  0  0  0  0  0  0  0
    3.2513    1.6674    0.0000 O   0  0  0  0  0  0  0  0  0  0  0  0
    4.5078   -0.6067    0.0000 N   0  0  0  0  0  0  0  0  0  0  0  0
    5.8207    0.1188    0.0000 C   0  0  0  0  0  0  0  0  0  0  0  0
    7.1054   -0.6555    0.0000 C   0  0  0  0  0  0  0  0  0  0  0  0
    8.4183    0.0699    0.0000 N   0  0  0  0  0  0  0  0  0  0  0  0
    9.7030   -0.7044    0.0000 C   0  0  0  0  0  0  0  0  0  0  0  0
   11.0159    0.0210    0.0000 C   0  0  0  0  0  0  0  0  0  0  0  0
   11.0442    1.5207    0.0000 O   0  0  0  0  0  0  0  0  0  0  0  0
   12.3006   -0.7533    0.0000 O   0  0  0  0  0  0  0  0  0  0  0  0
  1  2  1  0
  2  3  1  0
  3  4  1  0
  4  5  1  0
  5  6  1  0
  6  7  1  0
  7  8  1  0
  8  9  1  0
  9 10  1  0
 10 11  1  0
 11 12  1  0
 12 13  1  0
 13 14  1  0
 14 15  2  0
 14 16  1  0
 16 17  1  0
 17 18  1  0
 18 19  1  0
 19 20  1  0
 20 21  1  0
 21 22  2  0
 21 23  1  0
M  END
