008_coconut
     RDKit          2D

 16 15  0  0  0  0  0  0  0  0999 V2000
   -9.4252   -0.2917    0.0000 C   0  0  0  0  0  0  0  0  0  0  0  0
   -8.1123    0.4338    0.0000 C   0  0  0  0  0  0  0  0  0  0  0  0
   -6.8276   -0.3405    0.0000 C   0  0  0  0  0  0  0  0  0  0  0  0
   -5.5147    0.3849    0.0000 C   0  0  0  0  0  0  0  0  0  0  0  0
   -4.2299   -0.3893    0.0000 C   0  0  0  0  0  0  0  0  0  0  0  0
   -2.9170    0.3361    0.0000 C   0  0  0  0  0  0  0  0  0  0  0  0
   -1.6323   -0.4382    0.0000 C   0  0  0  0  0  0  0  0  0  0  0  0
   -0.3194    0.2873    0.0000 C   0  0  0  0  0  0  0  0  0  0  0  0
    0.9653   -0.4870    0.0000 C   0  0  0  0  0  0  0  0  0  0  0  0
    2.2782    0.2385    0.0000 C   0  0  0  0  0  0  0  0  0  0  0  0
    3.5629   -0.5358    0.0000 C   0  0  0  0  0  0  0  0  0  0  0  0
    4.8758    0.1897    0.0000 C   0  0  0  0  0  0  0  0  0  0  0  0
    4.9040    1.6894    0.0000 O   0  0  0  0  0  0  0  0  0  0  0  0
    6.1605   -0.5846    0.0000 O   0  0  0  0  0  0  0  0  0  0  0  0
    7.4734    0.1409    0.0000 C   0  0  0  0  0  0  0  0  0  0  0  0
    8.7582   -0.6334    0.0000 C   0  0  0  0  0  0  0  0  0  0  0  0
  1  2  1  0
  2  3  1  0
  3  4  1  0
  4  5  1  0
  5  6  1  0
  6  7  1  0
  7  8  1  0
  8  9  1  0
  9 10  1  0
 10 11  1  0
 11 12  1  0
 12 13  2  0
 12 14  1  0
 14 15  1  0
 15 16  1  0
M  END
