009_coconut
     RDKit          2D

 24 23  0  0  0  0  0  0  0  0999 V2000
  -11.1732    1.5203    0.0000 C   0  0  0  0  0  0  0  0  0  0  0  0
   -9.6741    1.4689    0.0000 C   0  0  0  0  0  0  0  0  0  0  0  0
   -8.9690    0.1449    0.0000 C   0  0  0  0  0  0  0  0  0  0  0  0
   -7.4699    0.0935    0.0000 C   0  0  0  0  0  0  0  0  0  0  0  0
   -6.7649   -1.2304    0.0000 C   0  0  0  0  0  0  0  0  0  0  0  0
   -5.2657   -1.2818    0.0000 C   0  0  0  0  0  0  0  0  0  0  0  0
   -4.5607   -2.6058    0.0000 C   0  0  0  0  0  0  0  0  0  0  0  0
   -4.4717   -0.0092    0.0000 C   0  0  0  0  0  0  0  0  0  0  0  0
   -2.9726   -0.0606    0.0000 C   0  0  0  0  0  0  0  0  0  0  0  0
   -2.1785    1.2120    0.0000 C   0  0  0  0  0  0  0  0  0  0  0  0
   -0.6794    1.1606    0.0000 C   0  0  0  0  0  0  0  0  0  0  0  0
    0.1147    2.4332    0.0000 C   0  0  0  0  0  0  0  0  0  0  0  0
    0.0257   -0.1634    0.0000 C   0  0  0  0  0  0  0  0  0  0  0  0
    1.5248   -0.2147    0.0000 C   0  0  0  0  0  0  0  0  0  0  0  0
    2.2299   -1.5387    0.0000 C   0  0  0  0  0  0  0  0  0  0  0  0
    3.7290   -1.5901    0.0000 C   0  0  0  0  0  0  0  0  0  0  0  0
    4.4340   -2.9140    0.0000 C   0  0  0  0  0  0  0  0  0  0  0  0
    4.5230   -0.3175    0.0000 C   0  0  0  0  0  0  0  0  0  0  0  0
    6.0221   -0.3689    0.0000 C   0  0  0  0  0  0  0  0  0  0  0  0
    6.8162    0.9037    0.0000 O   0  0  0  0  0  0  0  0  0  0  0  0
    8.3153    0.8523    0.0000 P   0  0  0  0  0  0  0  0  0  0  0  0
    8.3667    2.3514    0.0000 O   0  0  0  0  0  0  0  0  0  0  0  0
    8.2639   -0.6468    0.0000 O   0  0  0  0  0  0  0  0  0  0  0  0
    9.8144    0.8009    0.0000 O   0  0  0  0  0  0  0  0  0  0  0  0
  1  2  1  0
  2  3  1  0
  3  4  1  0
  4  5  1  0
  5  6  1  0
  6  7  1  0
  6  8  1  0
  8  9  1  0
  9 10  1  0
 10 11  1  0
 11 12  1  0
 11 13  1  0
 13 14  1  0
 14 15  1  0
 15 16  1  0
 16 17  1  0
 16 18  2  3
 18 19  1  0
 19 20  1  0
 20 21  1  0
 21 22  2  0
 21 23  1  0
 21 24  1  0
M  END
