011_coconut
     RDKit          2D

 25 24  0  0  0  0  0  0  0  0999 V2000
  -15.4813    0.4371    0.0000 O   0  0  0  0  0  0  0  0  0  0  0  0
  -14.1889   -0.3244    0.0000 C   0  0  0  0  0  0  0  0  0  0  0  0
  -12.8833    0.4141    0.0000 C   0  0  0  0  0  0  0  0  0  0  0  0
  -11.5910   -0.3474    0.0000 C   0  0  0  0  0  0  0  0  0  0  0  0
  -10.2853    0.3911    0.0000 C   0  0  0  0  0  0  0  0  0  0  0  0
   -8.9930   -0.3704    0.0000 C   0  0  0  0  0  0  0  0  0  0  0  0
   -7.6873    0.3681    0.0000 C   0  0  0  0  0  0  0  0  0  0  0  0
   -6.3950   -0.3934    0.0000 C   0  0  0  0  0  0  0  0  0  0  0  0
   -5.0894    0.3451    0.0000 C   0  0  0  0  0  0  0  0  0  0  0  0
   -3.7970   -0.4164    0.0000 C   0  0  0  0  0  0  0  0  0  0  0  0
   -2.4914    0.3221    0.0000 C   0  0  0  0  0  0  0  0  0  0  0  0
   -1.1991   -0.4394    0.0000 C   0  0  0  0  0  0  0  0  0  0  0  0
    0.1066    0.2991    0.0000 C   0  0  0  0  0  0  0  0  0  0  0  0
    1.3989   -0.4624    0.0000 C   0  0  0  0  0  0  0  0  0  0  0  0
    2.7045    0.2761    0.0000 C   0  0  0  0  0  0  0  0  0  0  0  0
    3.9969   -0.4854    0.0000 C   0  0  0  0  0  0  0  0  0  0  0  0
    5.3025    0.2531    0.0000 C   0  0  0  0  0  0  0  0  0  0  0  0
    6.5949   -0.5084    0.0000 C   0  0  0  0  0  0  0  0  0  0  0  0
    7.9005    0.2301    0.0000 C   0  0  0  0  0  0  0  0  0  0  0  0
    9.1928   -0.5314    0.0000 C   0  0  0  0  0  0  0  0  0  0  0  0
   10.4985    0.2071    0.0000 C   0  0  0  0  0  0  0  0  0  0  0  0
   11.7908   -0.5544    0.0000 C   0  0  0  0  0  0  0  0  0  0  0  0
   13.0964    0.1841    0.0000 C   0  0  0  0  0  0  0  0  0  0  0  0
   13.1097    1.6840    0.0000 O   0  0  0  0  0  0  0  0  0  0  0  0
   14.3888   -0.5774    0.0000 O   0  0  0  0  0  0  0  0  0  0  0  0
  1  2  2  0
  2  3  1  0
  3  4  1  0
  4  5  1  0
  5  6  1  0
  6  7  1  0
  7  8  1  0
  8  9  1  0
  9 10  1  0
 10 11  1  0
 11 12  1  0
 12 13  1  0
 13 14  1  0
 14 15  1  0
 15 16  1  0
 16 17  1  0
 17 18  1  0
 18 19  1  0
 19 20  1  0
 20 21  1  0
 21 22  1  0
 22 23  1  0
 23 24  2  0
 23 25  1  0
M  END
