012_coconut
     RDKit          2D

 16 15  0  0  0  0  0  0  0  0999 V2000
   -5.5815    0.1781    0.0000 C   0  0  0  0  0  0  0  0  0  0  0  0
   -4.3778   -0.7169    0.0000 N   0  0  0  0  0  0  0  0  0  0  0  0
   -3.1741   -1.6120    0.0000 C   0  0  0  0  0  0  0  0  0  0  0  0
   -5.2728   -1.9206    0.0000 C   0  0  0  0  0  0  0  0  0  0  0  0
   -3.4827    0.4868    0.0000 C   0  0  0  0  0  0  0  0  0  0  0  0
   -1.9928    0.3135    0.0000 C   0  0  0  0  0  0  0  0  0  0  0  0
   -1.0977    1.5172    0.0000 O   0  0  0  0  0  0  0  0  0  0  0  0
    0.3923    1.3439    0.0000 P   0  0  0  0  0  0  0  0  0  0  0  0
    0.2190   -0.1460    0.0000 O   0  0  0  0  0  0  0  0  0  0  0  0
    0.5655    2.8339    0.0000 O   0  0  0  0  0  0  0  0  0  0  0  0
    1.8822    1.1706    0.0000 O   0  0  0  0  0  0  0  0  0  0  0  0
    2.4771   -0.2063    0.0000 C   0  0  0  0  0  0  0  0  0  0  0  0
    3.9671   -0.3796    0.0000 C   0  0  0  0  0  0  0  0  0  0  0  0
    4.8621    0.8241    0.0000 O   0  0  0  0  0  0  0  0  0  0  0  0
    4.5620   -1.7566    0.0000 C   0  0  0  0  0  0  0  0  0  0  0  0
    6.0520   -1.9299    0.0000 O   0  0  0  0  0  0  0  0  0  0  0  0
  1  2  1  0
  2  3  1  0
  2  4  1  0
  2  5  1  0
  5  6  1  0
  6  7  1  0
  7  8  1  0
  8  9  2  0
  8 10  1  0
  8 11  1  0
 11 12  1  0
 12 13  1  0
 13 14  1  6
 13 15  1  0
 15 16  1  0
M  CHG  2   2   1  10  -1
M  END
