013_coconut
     RDKit          2D

 35 34  0  0  0  0  0  0  0  0999 V2000
  -19.7699    0.6863    0.0000 C   0  0  0  0  0  0  0  0  0  0  0  0
  -18.4053    1.3092    0.0000 C   0  0  0  0  0  0  0  0  0  0  0  0
  -17.1836    0.4389    0.0000 C   0  0  0  0  0  0  0  0  0  0  0  0
  -15.8191    1.0617    0.0000 C   0  0  0  0  0  0  0  0  0  0  0  0
  -14.5974    0.1914    0.0000 C   0  0  0  0  0  0  0  0  0  0  0  0
  -13.2328    0.8142    0.0000 C   0  0  0  0  0  0  0  0  0  0  0  0
  -12.0111   -0.0561    0.0000 C   0  0  0  0  0  0  0  0  0  0  0  0
  -10.6465    0.5667    0.0000 C   0  0  0  0  0  0  0  0  0  0  0  0
   -9.4249   -0.3036    0.0000 C   0  0  0  0  0  0  0  0  0  0  0  0
   -8.0603    0.3192    0.0000 C   0  0  0  0  0  0  0  0  0  0  0  0
   -6.8386   -0.5511    0.0000 C   0  0  0  0  0  0  0  0  0  0  0  0
   -5.4740    0.0718    0.0000 C   0  0  0  0  0  0  0  0  0  0  0  0
   -4.2523   -0.7986    0.0000 C   0  0  0  0  0  0  0  0  0  0  0  0
   -2.8878   -0.1757    0.0000 C   0  0  0  0  0  0  0  0  0  0  0  0
   -1.6661   -1.0461    0.0000 C   0  0  0  0  0  0  0  0  0  0  0  0
   -0.3015   -0.4232    0.0000 C   0  0  0  0  0  0  0  0  0  0  0  0
    0.9202   -1.2935    0.0000 C   0  0  0  0  0  0  0  0  0  0  0  0
    2.2848   -0.6707    0.0000 C   0  0  0  0  0  0  0  0  0  0  0  0
    2.4277    0.8225    0.0000 O   0  0  0  0  0  0  0  0  0  0  0  0
    3.5065   -1.5410    0.0000 O   0  0  0  0  0  0  0  0  0  0  0  0
    4.8710   -0.9182    0.0000 C   0  0  0  0  0  0  0  0  0  0  0  0
    6.0927   -1.7885    0.0000 C   0  0  0  0  0  0  0  0  0  0  0  0
    5.9498   -3.2817    0.0000 O   0  0  0  0  0  0  0  0  0  0  0  0
    7.4573   -1.1657    0.0000 C   0  0  0  0  0  0  0  0  0  0  0  0
    8.6790   -2.0360    0.0000 O   0  0  0  0  0  0  0  0  0  0  0  0
   10.0436   -1.4131    0.0000 P   0  0  0  0  0  0  0  0  0  0  0  0
   10.6664   -2.7777    0.0000 O   0  0  0  0  0  0  0  0  0  0  0  0
    9.4207   -0.0486    0.0000 O   0  0  0  0  0  0  0  0  0  0  0  0
   11.4081   -0.7903    0.0000 O   0  0  0  0  0  0  0  0  0  0  0  0
   11.5510    0.7029    0.0000 C   0  0  0  0  0  0  0  0  0  0  0  0
   12.9156    1.3257    0.0000 C   0  0  0  0  0  0  0  0  0  0  0  0
   13.0585    2.8189    0.0000 N   0  0  0  0  0  0  0  0  0  0  0  0
   14.5517    2.6760    0.0000 C   0  0  0  0  0  0  0  0  0  0  0  0
   11.5653    2.9618    0.0000 C   0  0  0  0  0  0  0  0  0  0  0  0
   13.2014    4.3121    0.0000 C   0  0  0  0  0  0  0  0  0  0  0  0
  1  2  1  0
  2  3  1  0
  3  4  2  3
  4  5  1  0
  5  6  1  0
  6  7  2  3
  7  8  1  0
  8  9  1  0
  9 10  2  3
 10 11  1  0
 11 12  1  0
 12 13  1  0
 13 14  1  0
 14 15  1  0
 15 16  1  0
 16 17  1  0
 17 18  1  0
 18 19  2  0
 18 20  1  0
 20 21  1  0
 21 22  1  0
 22 23  1  6
 22 24  1  0
 24 25  1  0
 25 26  1  0
 26 27  2  0
 26 28  1  0
 26 29  1  0
 29 30  1  0
 30 31  1  0
 31 32  1  0
 32 33  1  0
 32 34  1  0
 32 35  1  0
M  CHG  2  28  -1  32   1
M  END
