014_coconut
     RDKit          2D

 24 25  0  0  0  0  0  0  0  0999 V2000
   -0.3242   -1.8499    0.0000 O   0  0  0  0  0  0  0  0  0  0  0  0
    0.0195   -0.3898    0.0000 C   0  0  0  0  0  0  0  0  0  0  0  0
    1.4558    0.0426    0.0000 C   0  0  0  0  0  0  0  0  0  0  0  0
    2.5484   -0.9851    0.0000 C   0  0  0  0  0  0  0  0  0  0  0  0
    3.9847   -0.5526    0.0000 C   0  0  0  0  0  0  0  0  0  0  0  0
    5.0774   -1.5803    0.0000 C   0  0  0  0  0  0  0  0  0  0  0  0
    6.5137   -1.1479    0.0000 C   0  0  0  0  0  0  0  0  0  0  0  0
    6.8574    0.3122    0.0000 C   0  0  0  0  0  0  0  0  0  0  0  0
    8.2937    0.7447    0.0000 O   0  0  0  0  0  0  0  0  0  0  0  0
    5.7647    1.3399    0.0000 C   0  0  0  0  0  0  0  0  0  0  0  0
    6.1084    2.8000    0.0000 O   0  0  0  0  0  0  0  0  0  0  0  0
    4.3284    0.9075    0.0000 C   0  0  0  0  0  0  0  0  0  0  0  0
   -1.0732    0.6378    0.0000 O   0  0  0  0  0  0  0  0  0  0  0  0
   -2.5095    0.2054    0.0000 C   0  0  0  0  0  0  0  0  0  0  0  0
   -3.6022    1.2331    0.0000 C   0  0  0  0  0  0  0  0  0  0  0  0
   -5.0385    0.8006    0.0000 C   0  0  0  0  0  0  0  0  0  0  0  0
   -6.1311    1.8283    0.0000 C   0  0  0  0  0  0  0  0  0  0  0  0
   -7.5675    1.3959    0.0000 O   0  0  0  0  0  0  0  0  0  0  0  0
   -5.7875    3.2884    0.0000 O   0  0  0  0  0  0  0  0  0  0  0  0
   -5.3821   -0.6595    0.0000 C   0  0  0  0  0  0  0  0  0  0  0  0
   -4.2895   -1.6871    0.0000 C   0  0  0  0  0  0  0  0  0  0  0  0
   -4.6331   -3.1472    0.0000 O   0  0  0  0  0  0  0  0  0  0  0  0
   -2.8532   -1.2547    0.0000 C   0  0  0  0  0  0  0  0  0  0  0  0
   -1.7605   -2.2824    0.0000 O   0  0  0  0  0  0  0  0  0  0  0  0
  1  2  2  0
  2  3  1  0
  3  4  2  3
  4  5  1  0
  5  6  1  0
  6  7  2  0
  7  8  1  0
  8  9  1  0
  8 10  2  0
 10 11  1  0
 10 12  1  0
  2 13  1  0
 14 13  1  1
 14 15  1  0
 15 16  2  0
 16 17  1  0
 17 18  2  0
 17 19  1  0
 16 20  1  0
 20 21  1  0
 21 22  1  6
 21 23  1  0
 23 24  1  6
 12  5  2  0
 23 14  1  0
M  END
