015_coconut
     RDKit          2D

 20 21  0  0  0  0  0  0  0  0999 V2000
   -1.0995   -2.6897    0.0000 O   0  0  0  0  0  0  0  0  0  0  0  0
   -1.0303   -1.1913    0.0000 C   0  0  0  0  0  0  0  0  0  0  0  0
    0.3019   -0.5020    0.0000 C   0  0  0  0  0  0  0  0  0  0  0  0
    1.5650   -1.3111    0.0000 C   0  0  0  0  0  0  0  0  0  0  0  0
    2.8972   -0.6217    0.0000 C   0  0  0  0  0  0  0  0  0  0  0  0
    4.1603   -1.4308    0.0000 C   0  0  0  0  0  0  0  0  0  0  0  0
    5.4926   -0.7415    0.0000 C   0  0  0  0  0  0  0  0  0  0  0  0
    5.5617    0.7569    0.0000 C   0  0  0  0  0  0  0  0  0  0  0  0
    6.8940    1.4462    0.0000 O   0  0  0  0  0  0  0  0  0  0  0  0
    4.2986    1.5660    0.0000 C   0  0  0  0  0  0  0  0  0  0  0  0
    2.9664    0.8767    0.0000 C   0  0  0  0  0  0  0  0  0  0  0  0
   -2.2934   -0.3822    0.0000 C   0  0  0  0  0  0  0  0  0  0  0  0
   -2.2242    1.1162    0.0000 C   0  0  0  0  0  0  0  0  0  0  0  0
   -0.8920    1.8055    0.0000 O   0  0  0  0  0  0  0  0  0  0  0  0
   -3.4873    1.9253    0.0000 C   0  0  0  0  0  0  0  0  0  0  0  0
   -4.8195    1.2360    0.0000 C   0  0  0  0  0  0  0  0  0  0  0  0
   -6.0826    2.0451    0.0000 O   0  0  0  0  0  0  0  0  0  0  0  0
   -4.8887   -0.2624    0.0000 C   0  0  0  0  0  0  0  0  0  0  0  0
   -3.6256   -1.0715    0.0000 C   0  0  0  0  0  0  0  0  0  0  0  0
   -3.6948   -2.5699    0.0000 O   0  0  0  0  0  0  0  0  0  0  0  0
  1  2  2  0
  2  3  1  0
  3  4  1  0
  4  5  1  0
  5  6  1  0
  6  7  2  0
  7  8  1  0
  8  9  1  0
  8 10  2  0
 10 11  1  0
  2 12  1  0
 12 13  2  0
 13 14  1  0
 13 15  1  0
 15 16  2  0
 16 17  1  0
 16 18  1  0
 18 19  2  0
 19 20  1  0
 11  5  2  0
 19 12  1  0
M  END
