016_coconut
     RDKit          2D

 15 16  0  0  0  0  0  0  0  0999 V2000
   -4.0421   -1.0494    0.0000 O   0  0  0  0  0  0  0  0  0  0  0  0
   -3.0789    0.1005    0.0000 C   0  0  0  0  0  0  0  0  0  0  0  0
   -3.5932    1.5096    0.0000 O   0  0  0  0  0  0  0  0  0  0  0  0
   -1.6015   -0.1587    0.0000 C   0  0  0  0  0  0  0  0  0  0  0  0
   -1.0873   -1.5678    0.0000 C   0  0  0  0  0  0  0  0  0  0  0  0
    0.3902   -1.8270    0.0000 C   0  0  0  0  0  0  0  0  0  0  0  0
    0.9044   -3.2360    0.0000 O   0  0  0  0  0  0  0  0  0  0  0  0
    1.3534   -0.6770    0.0000 C   0  0  0  0  0  0  0  0  0  0  0  0
    2.8308   -0.9362    0.0000 C   0  0  0  0  0  0  0  0  0  0  0  0
    3.7940    0.2137    0.0000 C   0  0  0  0  0  0  0  0  0  0  0  0
    3.2797    1.6228    0.0000 C   0  0  0  0  0  0  0  0  0  0  0  0
    1.8023    1.8819    0.0000 C   0  0  0  0  0  0  0  0  0  0  0  0
    0.8391    0.7320    0.0000 C   0  0  0  0  0  0  0  0  0  0  0  0
   -0.6383    0.9912    0.0000 C   0  0  0  0  0  0  0  0  0  0  0  0
   -1.1526    2.4003    0.0000 O   0  0  0  0  0  0  0  0  0  0  0  0
  1  2  2  0
  2  3  1  0
  2  4  1  0
  4  5  1  0
  5  6  2  0
  6  7  1  0
  6  8  1  0
  8  9  2  0
  9 10  1  0
 10 11  2  0
 11 12  1  0
 12 13  2  0
 13 14  1  0
 14 15  1  0
 14  4  2  0
 13  8  1  0
M  END
