017_coconut
     RDKit          2D

 23 24  0  0  0  0  0  0  0  0999 V2000
    0.0079   -1.7292    0.0000 O   0  0  0  0  0  0  0  0  0  0  0  0
    0.2951   -0.2569    0.0000 C   0  0  0  0  0  0  0  0  0  0  0  0
    1.7138    0.2304    0.0000 C   0  0  0  0  0  0  0  0  0  0  0  0
    2.8451   -0.7544    0.0000 C   0  0  0  0  0  0  0  0  0  0  0  0
    4.2638   -0.2671    0.0000 C   0  0  0  0  0  0  0  0  0  0  0  0
    5.3951   -1.2519    0.0000 C   0  0  0  0  0  0  0  0  0  0  0  0
    6.8138   -0.7646    0.0000 C   0  0  0  0  0  0  0  0  0  0  0  0
    7.1010    0.7077    0.0000 C   0  0  0  0  0  0  0  0  0  0  0  0
    8.5196    1.1950    0.0000 O   0  0  0  0  0  0  0  0  0  0  0  0
    5.9696    1.6925    0.0000 C   0  0  0  0  0  0  0  0  0  0  0  0
    4.5510    1.2052    0.0000 C   0  0  0  0  0  0  0  0  0  0  0  0
   -0.8362    0.7280    0.0000 O   0  0  0  0  0  0  0  0  0  0  0  0
   -2.2549    0.2406    0.0000 C   0  0  0  0  0  0  0  0  0  0  0  0
   -3.3862    1.2255    0.0000 C   0  0  0  0  0  0  0  0  0  0  0  0
   -4.8049    0.7381    0.0000 C   0  0  0  0  0  0  0  0  0  0  0  0
   -5.9362    1.7230    0.0000 C   0  0  0  0  0  0  0  0  0  0  0  0
   -7.3548    1.2356    0.0000 O   0  0  0  0  0  0  0  0  0  0  0  0
   -5.6490    3.1952    0.0000 O   0  0  0  0  0  0  0  0  0  0  0  0
   -5.0921   -0.7342    0.0000 C   0  0  0  0  0  0  0  0  0  0  0  0
   -3.9607   -1.7190    0.0000 C   0  0  0  0  0  0  0  0  0  0  0  0
   -4.2479   -3.1913    0.0000 O   0  0  0  0  0  0  0  0  0  0  0  0
   -2.5421   -1.2317    0.0000 C   0  0  0  0  0  0  0  0  0  0  0  0
   -1.4107   -2.2165    0.0000 O   0  0  0  0  0  0  0  0  0  0  0  0
  1  2  2  0
  2  3  1  0
  3  4  2  3
  4  5  1  0
  5  6  1  0
  6  7  2  0
  7  8  1  0
  8  9  1  0
  8 10  2  0
 10 11  1  0
  2 12  1  0
 12 13  1  0
 13 14  1  0
 14 15  1  0
 15 16  1  0
 16 17  2  0
 16 18  1  0
 15 19  2  0
 19 20  1  0
 20 21  1  0
 20 22  1  0
 22 23  1  0
 11  5  2  0
 22 13  1  0
M  END
