018_coconut
     RDKit          2D

 16 17  0  0  0  0  0  0  0  0999 V2000
    0.9659   -3.3647    0.0000 O   0  0  0  0  0  0  0  0  0  0  0  0
    2.3425   -2.7689    0.0000 C   0  0  0  0  0  0  0  0  0  0  0  0
    2.5148   -1.2789    0.0000 C   0  0  0  0  0  0  0  0  0  0  0  0
    3.8216   -0.5425    0.0000 C   0  0  0  0  0  0  0  0  0  0  0  0
    3.5251    0.9279    0.0000 C   0  0  0  0  0  0  0  0  0  0  0  0
    2.0350    1.1003    0.0000 C   0  0  0  0  0  0  0  0  0  0  0  0
    1.2986    2.4070    0.0000 C   0  0  0  0  0  0  0  0  0  0  0  0
    2.0621    3.6982    0.0000 O   0  0  0  0  0  0  0  0  0  0  0  0
    1.4106   -0.2636    0.0000 N   0  0  0  0  0  0  0  0  0  0  0  0
   -0.0597   -0.5602    0.0000 C   0  0  0  0  0  0  0  0  0  0  0  0
   -1.0518    0.5649    0.0000 C   0  0  0  0  0  0  0  0  0  0  0  0
   -2.5222    0.2684    0.0000 N   0  0  0  0  0  0  0  0  0  0  0  0
   -3.1465   -1.0955    0.0000 C   0  0  0  0  0  0  0  0  0  0  0  0
   -4.6366   -0.9232    0.0000 C   0  0  0  0  0  0  0  0  0  0  0  0
   -4.9331    0.5472    0.0000 C   0  0  0  0  0  0  0  0  0  0  0  0
   -3.6264    1.2836    0.0000 N   0  0  0  0  0  0  0  0  0  0  0  0
  1  2  2  0
  2  3  1  0
  3  4  2  0
  4  5  1  0
  5  6  2  0
  6  7  1  0
  7  8  1  0
  6  9  1  0
  9 10  1  0
 10 11  1  0
 11 12  1  0
 12 13  1  0
 13 14  2  0
 14 15  1  0
 15 16  2  0
  9  3  1  0
 16 12  1  0
M  END
