019_coconut
     RDKit          2D

 22 23  0  0  0  0  0  0  0  0999 V2000
   -6.4653   -0.2098    0.0000 C   0  0  0  0  0  0  0  0  0  0  0  0
   -5.2201   -1.0461    0.0000 O   0  0  0  0  0  0  0  0  0  0  0  0
   -3.8732   -0.3860    0.0000 C   0  0  0  0  0  0  0  0  0  0  0  0
   -3.7714    1.1106    0.0000 O   0  0  0  0  0  0  0  0  0  0  0  0
   -2.4245    1.7708    0.0000 C   0  0  0  0  0  0  0  0  0  0  0  0
   -2.3228    3.2673    0.0000 C   0  0  0  0  0  0  0  0  0  0  0  0
   -1.1793    0.9344    0.0000 C   0  0  0  0  0  0  0  0  0  0  0  0
    0.1676    1.5946    0.0000 O   0  0  0  0  0  0  0  0  0  0  0  0
    1.4128    0.7582    0.0000 C   0  0  0  0  0  0  0  0  0  0  0  0
    1.3110   -0.7383    0.0000 O   0  0  0  0  0  0  0  0  0  0  0  0
    2.5562   -1.5747    0.0000 C   0  0  0  0  0  0  0  0  0  0  0  0
    2.4545   -3.0713    0.0000 C   0  0  0  0  0  0  0  0  0  0  0  0
    3.9031   -0.9145    0.0000 C   0  0  0  0  0  0  0  0  0  0  0  0
    5.1483   -1.7509    0.0000 O   0  0  0  0  0  0  0  0  0  0  0  0
    4.0049    0.5820    0.0000 C   0  0  0  0  0  0  0  0  0  0  0  0
    5.3518    1.2422    0.0000 O   0  0  0  0  0  0  0  0  0  0  0  0
    2.7597    1.4184    0.0000 C   0  0  0  0  0  0  0  0  0  0  0  0
    2.8614    2.9149    0.0000 O   0  0  0  0  0  0  0  0  0  0  0  0
   -1.2811   -0.5621    0.0000 C   0  0  0  0  0  0  0  0  0  0  0  0
   -0.0359   -1.3985    0.0000 O   0  0  0  0  0  0  0  0  0  0  0  0
   -2.6280   -1.2223    0.0000 C   0  0  0  0  0  0  0  0  0  0  0  0
   -2.7297   -2.7189    0.0000 O   0  0  0  0  0  0  0  0  0  0  0  0
  1  2  1  0
  3  2  1  6
  3  4  1  0
  4  5  1  0
  5  6  1  1
  5  7  1  0
  7  8  1  6
  9  8  1  1
  9 10  1  0
 10 11  1  0
 11 12  1  6
 11 13  1  0
 13 14  1  1
 13 15  1  0
 15 16  1  6
 15 17  1  0
 17 18  1  6
  7 19  1  0
 19 20  1  6
 19 21  1  0
 21 22  1  1
 21  3  1  0
 17  9  1  0
M  END
