020_coconut
     RDKit          2D

 15 16  0  0  0  0  0  0  0  0999 V2000
   -4.3790   -1.6169    0.0000 C   0  0  0  0  0  0  0  0  0  0  0  0
   -3.2261   -0.6573    0.0000 C   0  0  0  0  0  0  0  0  0  0  0  0
   -3.4808    0.8209    0.0000 C   0  0  0  0  0  0  0  0  0  0  0  0
   -2.3280    1.7806    0.0000 C   0  0  0  0  0  0  0  0  0  0  0  0
   -0.9205    1.2620    0.0000 C   0  0  0  0  0  0  0  0  0  0  0  0
    0.2324    2.2217    0.0000 N   0  0  0  0  0  0  0  0  0  0  0  0
    1.6399    1.7032    0.0000 C   0  0  0  0  0  0  0  0  0  0  0  0
    1.8946    0.2249    0.0000 C   0  0  0  0  0  0  0  0  0  0  0  0
    3.3021   -0.2936    0.0000 C   0  0  0  0  0  0  0  0  0  0  0  0
    4.4549    0.6660    0.0000 O   0  0  0  0  0  0  0  0  0  0  0  0
    3.5568   -1.7719    0.0000 O   0  0  0  0  0  0  0  0  0  0  0  0
    0.7417   -0.7347    0.0000 C   0  0  0  0  0  0  0  0  0  0  0  0
    0.9964   -2.2130    0.0000 O   0  0  0  0  0  0  0  0  0  0  0  0
   -0.6658   -0.2162    0.0000 C   0  0  0  0  0  0  0  0  0  0  0  0
   -1.8186   -1.1758    0.0000 C   0  0  0  0  0  0  0  0  0  0  0  0
  1  2  1  0
  2  3  1  0
  3  4  2  0
  4  5  1  0
  5  6  1  0
  6  7  1  0
  7  8  2  0
  8  9  1  0
  9 10  2  0
  9 11  1  0
  8 12  1  0
 12 13  2  0
 12 14  1  0
 14 15  1  0
 15  2  2  0
 14  5  2  0
M  END
