021_coconut
     RDKit          2D

 15 16  0  0  0  0  0  0  0  0999 V2000
    5.8762    1.0206    0.0000 C   0  0  0  0  0  0  0  0  0  0  0  0
    4.6300    0.1858    0.0000 C   0  0  0  0  0  0  0  0  0  0  0  0
    4.7299   -1.3109    0.0000 C   0  0  0  0  0  0  0  0  0  0  0  0
    3.2839    0.8476    0.0000 C   0  0  0  0  0  0  0  0  0  0  0  0
    2.0377    0.0127    0.0000 C   0  0  0  0  0  0  0  0  0  0  0  0
    0.6916    0.6746    0.0000 N   0  0  0  0  0  0  0  0  0  0  0  0
   -0.5546   -0.1603    0.0000 C   0  0  0  0  0  0  0  0  0  0  0  0
   -0.4547   -1.6570    0.0000 N   0  0  0  0  0  0  0  0  0  0  0  0
   -1.7009   -2.4918    0.0000 C   0  0  0  0  0  0  0  0  0  0  0  0
   -3.0470   -1.8300    0.0000 N   0  0  0  0  0  0  0  0  0  0  0  0
   -3.1469   -0.3333    0.0000 C   0  0  0  0  0  0  0  0  0  0  0  0
   -4.3260    0.5939    0.0000 N   0  0  0  0  0  0  0  0  0  0  0  0
   -3.8085    2.0018    0.0000 C   0  0  0  0  0  0  0  0  0  0  0  0
   -2.3096    1.9447    0.0000 N   0  0  0  0  0  0  0  0  0  0  0  0
   -1.9007    0.5015    0.0000 C   0  0  0  0  0  0  0  0  0  0  0  0
  1  2  1  0
  2  3  1  0
  2  4  2  0
  4  5  1  0
  5  6  1  0
  6  7  1  0
  7  8  1  0
  8  9  2  0
  9 10  1  0
 10 11  2  0
 11 12  1  0
 12 13  2  0
 13 14  1  0
 14 15  1  0
 15  7  2  0
 15 11  1  0
M  END
