022_coconut
     RDKit          2D

 24 25  0  0  0  0  0  0  0  0999 V2000
    9.0610   -3.6464    0.0000 C   0  0  0  0  0  0  0  0  0  0  0  0
    8.3034   -2.3518    0.0000 C   0  0  0  0  0  0  0  0  0  0  0  0
    6.8034   -2.3606    0.0000 C   0  0  0  0  0  0  0  0  0  0  0  0
    6.0458   -1.0659    0.0000 C   0  0  0  0  0  0  0  0  0  0  0  0
    4.5459   -1.0747    0.0000 C   0  0  0  0  0  0  0  0  0  0  0  0
    3.8035   -2.3781    0.0000 O   0  0  0  0  0  0  0  0  0  0  0  0
    3.7883    0.2199    0.0000 C   0  0  0  0  0  0  0  0  0  0  0  0
    2.2883    0.2111    0.0000 C   0  0  0  0  0  0  0  0  0  0  0  0
    1.5307    1.5057    0.0000 C   0  0  0  0  0  0  0  0  0  0  0  0
    2.1328    2.8796    0.0000 C   0  0  0  0  0  0  0  0  0  0  0  0
    0.8382    2.1220    0.0000 C   0  0  0  0  0  0  0  0  0  0  0  0
   -0.2824    3.1191    0.0000 C   0  0  0  0  0  0  0  0  0  0  0  0
    0.3196    4.4930    0.0000 O   0  0  0  0  0  0  0  0  0  0  0  0
    1.8123    4.3450    0.0000 O   0  0  0  0  0  0  0  0  0  0  0  0
    0.0380    1.6538    0.0000 C   0  0  0  0  0  0  0  0  0  0  0  0
   -0.9591    0.5332    0.0000 C   0  0  0  0  0  0  0  0  0  0  0  0
   -2.4281    0.8365    0.0000 C   0  0  0  0  0  0  0  0  0  0  0  0
   -3.4253   -0.2841    0.0000 C   0  0  0  0  0  0  0  0  0  0  0  0
   -4.8943    0.0192    0.0000 C   0  0  0  0  0  0  0  0  0  0  0  0
   -5.8915   -1.1014    0.0000 C   0  0  0  0  0  0  0  0  0  0  0  0
   -7.3605   -0.7981    0.0000 C   0  0  0  0  0  0  0  0  0  0  0  0
   -8.3576   -1.9187    0.0000 C   0  0  0  0  0  0  0  0  0  0  0  0
   -7.8858   -3.3426    0.0000 O   0  0  0  0  0  0  0  0  0  0  0  0
   -9.8267   -1.6155    0.0000 O   0  0  0  0  0  0  0  0  0  0  0  0
  1  2  1  0
  2  3  1  0
  3  4  1  0
  4  5  1  0
  5  6  1  0
  5  7  1  0
  7  8  2  3
  8  9  1  0
  9 10  1  0
 10 11  1  0
 11 12  1  0
 12 13  1  0
 13 14  1  0
 12 15  1  0
 15 16  1  0
 16 17  1  0
 17 18  2  3
 18 19  1  0
 19 20  1  0
 20 21  1  0
 21 22  1  0
 22 23  2  0
 22 24  1  0
 15  9  1  0
 14 10  1  0
M  END
