023_coconut
     RDKit          2D

 18 19  0  0  0  0  0  0  0  0999 V2000
    3.9686   -2.5464    0.0000 C   0  0  0  0  0  0  0  0  0  0  0  0
    3.1722   -1.2752    0.0000 C   0  0  0  0  0  0  0  0  0  0  0  0
    1.6732   -1.3294    0.0000 C   0  0  0  0  0  0  0  0  0  0  0  0
    0.8768   -0.0583    0.0000 N   0  0  0  0  0  0  0  0  0  0  0  0
   -0.6222   -0.1125    0.0000 C   0  0  0  0  0  0  0  0  0  0  0  0
   -1.4595   -1.3570    0.0000 O   0  0  0  0  0  0  0  0  0  0  0  0
   -2.9019   -0.9453    0.0000 C   0  0  0  0  0  0  0  0  0  0  0  0
   -4.0828   -1.8702    0.0000 C   0  0  0  0  0  0  0  0  0  0  0  0
   -5.4743   -1.3100    0.0000 O   0  0  0  0  0  0  0  0  0  0  0  0
   -2.9561    0.5537    0.0000 C   0  0  0  0  0  0  0  0  0  0  0  0
   -4.2007    1.3910    0.0000 O   0  0  0  0  0  0  0  0  0  0  0  0
   -1.5472    1.0684    0.0000 C   0  0  0  0  0  0  0  0  0  0  0  0
   -1.1355    2.5108    0.0000 O   0  0  0  0  0  0  0  0  0  0  0  0
    1.5794    1.2670    0.0000 C   0  0  0  0  0  0  0  0  0  0  0  0
    0.7830    2.5381    0.0000 O   0  0  0  0  0  0  0  0  0  0  0  0
    3.0784    1.3211    0.0000 N   0  0  0  0  0  0  0  0  0  0  0  0
    3.8748    0.0500    0.0000 C   0  0  0  0  0  0  0  0  0  0  0  0
    5.3738    0.1042    0.0000 N   0  0  0  0  0  0  0  0  0  0  0  0
  1  2  1  0
  2  3  2  0
  3  4  1  0
  5  4  1  6
  5  6  1  0
  6  7  1  0
  7  8  1  6
  8  9  1  0
  7 10  1  0
 10 11  1  1
 10 12  1  0
 12 13  1  1
  4 14  1  0
 14 15  2  0
 14 16  1  0
 16 17  2  0
 17 18  1  0
 17  2  1  0
 12  5  1  0
M  END
