024_coconut
     RDKit          2D

 16 17  0  0  0  0  0  0  0  0999 V2000
   -4.3059   -1.1615    0.0000 C   0  0  0  0  0  0  0  0  0  0  0  0
   -3.0087   -1.9146    0.0000 O   0  0  0  0  0  0  0  0  0  0  0  0
   -1.7078   -1.1678    0.0000 C   0  0  0  0  0  0  0  0  0  0  0  0
   -0.4106   -1.9209    0.0000 C   0  0  0  0  0  0  0  0  0  0  0  0
    0.8903   -1.1740    0.0000 C   0  0  0  0  0  0  0  0  0  0  0  0
    2.1875   -1.9272    0.0000 C   0  0  0  0  0  0  0  0  0  0  0  0
    3.4883   -1.1803    0.0000 C   0  0  0  0  0  0  0  0  0  0  0  0
    3.4919    0.3197    0.0000 C   0  0  0  0  0  0  0  0  0  0  0  0
    4.7928    1.0665    0.0000 O   0  0  0  0  0  0  0  0  0  0  0  0
    2.1947    1.0728    0.0000 O   0  0  0  0  0  0  0  0  0  0  0  0
    0.8939    0.3260    0.0000 C   0  0  0  0  0  0  0  0  0  0  0  0
   -0.4033    1.0791    0.0000 C   0  0  0  0  0  0  0  0  0  0  0  0
   -0.3997    2.5791    0.0000 O   0  0  0  0  0  0  0  0  0  0  0  0
   -1.7042    0.3322    0.0000 C   0  0  0  0  0  0  0  0  0  0  0  0
   -3.0014    1.0854    0.0000 O   0  0  0  0  0  0  0  0  0  0  0  0
   -2.9978    2.5854    0.0000 C   0  0  0  0  0  0  0  0  0  0  0  0
  1  2  1  0
  2  3  1  0
  3  4  1  0
  4  5  2  0
  5  6  1  0
  6  7  2  0
  7  8  1  0
  8  9  2  0
  8 10  1  0
 10 11  1  0
 11 12  2  0
 12 13  1  0
 12 14  1  0
 14 15  1  0
 15 16  1  0
 14  3  2  0
 11  5  1  0
M  END
