025_coconut
     RDKit          2D

 20 21  0  0  0  0  0  0  0  0999 V2000
    3.2682   -3.2295    0.0000 O   0  0  0  0  0  0  0  0  0  0  0  0
    1.9364   -2.5394    0.0000 C   0  0  0  0  0  0  0  0  0  0  0  0
    0.6728   -3.3478    0.0000 O   0  0  0  0  0  0  0  0  0  0  0  0
    1.8680   -1.0410    0.0000 C   0  0  0  0  0  0  0  0  0  0  0  0
    0.5362   -0.3509    0.0000 O   0  0  0  0  0  0  0  0  0  0  0  0
    0.4678    1.1475    0.0000 C   0  0  0  0  0  0  0  0  0  0  0  0
   -0.8640    1.8375    0.0000 O   0  0  0  0  0  0  0  0  0  0  0  0
   -2.1276    1.0291    0.0000 C   0  0  0  0  0  0  0  0  0  0  0  0
   -3.4594    1.7192    0.0000 C   0  0  0  0  0  0  0  0  0  0  0  0
   -4.7229    0.9108    0.0000 C   0  0  0  0  0  0  0  0  0  0  0  0
   -4.6546   -0.5877    0.0000 C   0  0  0  0  0  0  0  0  0  0  0  0
   -5.9181   -1.3961    0.0000 O   0  0  0  0  0  0  0  0  0  0  0  0
   -3.3227   -1.2777    0.0000 C   0  0  0  0  0  0  0  0  0  0  0  0
   -2.0592   -0.4693    0.0000 C   0  0  0  0  0  0  0  0  0  0  0  0
    1.7313    1.9559    0.0000 C   0  0  0  0  0  0  0  0  0  0  0  0
    1.6630    3.4544    0.0000 O   0  0  0  0  0  0  0  0  0  0  0  0
    3.0632    1.2659    0.0000 C   0  0  0  0  0  0  0  0  0  0  0  0
    4.3267    2.0743    0.0000 O   0  0  0  0  0  0  0  0  0  0  0  0
    3.1315   -0.2326    0.0000 C   0  0  0  0  0  0  0  0  0  0  0  0
    4.4634   -0.9226    0.0000 O   0  0  0  0  0  0  0  0  0  0  0  0
  1  2  2  0
  2  3  1  0
  4  2  1  1
  4  5  1  0
  5  6  1  0
  6  7  1  1
  7  8  1  0
  8  9  1  0
  9 10  2  0
 10 11  1  0
 11 12  1  0
 11 13  2  0
 13 14  1  0
  6 15  1  0
 15 16  1  6
 15 17  1  0
 17 18  1  1
 17 19  1  0
 19 20  1  6
 19  4  1  0
 14  8  2  0
M  END
