026_coconut
     RDKit          2D

 17 18  0  0  0  0  0  0  0  0999 V2000
   -5.1174   -1.1971    0.0000 C   0  0  0  0  0  0  0  0  0  0  0  0
   -3.8538   -0.3889    0.0000 C   0  0  0  0  0  0  0  0  0  0  0  0
   -2.4571   -0.9361    0.0000 N   0  0  0  0  0  0  0  0  0  0  0  0
   -1.5051    0.2231    0.0000 C   0  0  0  0  0  0  0  0  0  0  0  0
   -0.0077    0.1342    0.0000 N   0  0  0  0  0  0  0  0  0  0  0  0
    0.6640   -1.2070    0.0000 C   0  0  0  0  0  0  0  0  0  0  0  0
   -0.1617   -2.4593    0.0000 O   0  0  0  0  0  0  0  0  0  0  0  0
    2.1613   -1.2959    0.0000 C   0  0  0  0  0  0  0  0  0  0  0  0
    2.8330   -2.6371    0.0000 C   0  0  0  0  0  0  0  0  0  0  0  0
    2.9870   -0.0436    0.0000 N   0  0  0  0  0  0  0  0  0  0  0  0
    2.4592    1.3605    0.0000 C   0  0  0  0  0  0  0  0  0  0  0  0
    3.6314    2.2963    0.0000 C   0  0  0  0  0  0  0  0  0  0  0  0
    4.8837    1.4707    0.0000 N   0  0  0  0  0  0  0  0  0  0  0  0
    4.4854    0.0245    0.0000 C   0  0  0  0  0  0  0  0  0  0  0  0
   -2.3133    1.4867    0.0000 S   0  0  0  0  0  0  0  0  0  0  0  0
   -3.7649    1.1085    0.0000 C   0  0  0  0  0  0  0  0  0  0  0  0
   -4.9240    2.0605    0.0000 C   0  0  0  0  0  0  0  0  0  0  0  0
  1  2  1  0
  2  3  1  0
  3  4  2  0
  4  5  1  0
  5  6  1  0
  6  7  2  0
  6  8  1  0
  8  9  1  0
  8 10  1  0
 10 11  1  0
 11 12  2  0
 12 13  1  0
 13 14  2  0
  4 15  1  0
 15 16  1  0
 16 17  1  0
 16  2  2  0
 14 10  1  0
M  END
