027_coconut
     RDKit          2D

 21 22  0  0  0  0  0  0  0  0999 V2000
   -1.9486   -2.4534    0.0000 O   0  0  0  0  0  0  0  0  0  0  0  0
   -3.3596   -1.9441    0.0000 C   0  0  0  0  0  0  0  0  0  0  0  0
   -4.5060   -2.9114    0.0000 O   0  0  0  0  0  0  0  0  0  0  0  0
   -3.6240   -0.4676    0.0000 C   0  0  0  0  0  0  0  0  0  0  0  0
   -5.0349    0.0416    0.0000 C   0  0  0  0  0  0  0  0  0  0  0  0
   -5.2993    1.5181    0.0000 C   0  0  0  0  0  0  0  0  0  0  0  0
   -4.1529    2.4854    0.0000 C   0  0  0  0  0  0  0  0  0  0  0  0
   -2.7420    1.9761    0.0000 C   0  0  0  0  0  0  0  0  0  0  0  0
   -2.4775    0.4996    0.0000 C   0  0  0  0  0  0  0  0  0  0  0  0
   -1.0666   -0.0096    0.0000 O   0  0  0  0  0  0  0  0  0  0  0  0
    0.0799    0.9576    0.0000 C   0  0  0  0  0  0  0  0  0  0  0  0
    1.4908    0.4484    0.0000 C   0  0  0  0  0  0  0  0  0  0  0  0
    1.7552   -1.0281    0.0000 O   0  0  0  0  0  0  0  0  0  0  0  0
    3.1661   -1.5373    0.0000 C   0  0  0  0  0  0  0  0  0  0  0  0
    3.4306   -3.0139    0.0000 O   0  0  0  0  0  0  0  0  0  0  0  0
    4.3126   -0.5701    0.0000 C   0  0  0  0  0  0  0  0  0  0  0  0
    5.7235   -1.0793    0.0000 O   0  0  0  0  0  0  0  0  0  0  0  0
    4.0482    0.9064    0.0000 C   0  0  0  0  0  0  0  0  0  0  0  0
    5.1946    1.8737    0.0000 O   0  0  0  0  0  0  0  0  0  0  0  0
    2.6372    1.4157    0.0000 C   0  0  0  0  0  0  0  0  0  0  0  0
    2.3728    2.8922    0.0000 O   0  0  0  0  0  0  0  0  0  0  0  0
  1  2  2  0
  2  3  1  0
  2  4  1  0
  4  5  2  0
  5  6  1  0
  6  7  2  0
  7  8  1  0
  8  9  2  0
  9 10  1  0
 10 11  1  0
 11 12  1  0
 12 13  1  0
 13 14  1  0
 14 15  1  0
 14 16  1  0
 16 17  1  0
 16 18  1  0
 18 19  1  0
 18 20  1  0
 20 21  1  0
  9  4  1  0
 20 12  1  0
M  END
