028_coconut
     RDKit          2D

 16 17  0  0  0  0  0  0  0  0999 V2000
   -3.3478    2.5070    0.0000 O   0  0  0  0  0  0  0  0  0  0  0  0
   -3.5183    1.0167    0.0000 C   0  0  0  0  0  0  0  0  0  0  0  0
   -4.8942    0.4192    0.0000 O   0  0  0  0  0  0  0  0  0  0  0  0
   -2.3129    0.1239    0.0000 C   0  0  0  0  0  0  0  0  0  0  0  0
   -0.9371    0.7214    0.0000 C   0  0  0  0  0  0  0  0  0  0  0  0
    0.2683   -0.1714    0.0000 C   0  0  0  0  0  0  0  0  0  0  0  0
    0.2545   -1.6713    0.0000 C   0  0  0  0  0  0  0  0  0  0  0  0
    1.6768   -2.1479    0.0000 N   0  0  0  0  0  0  0  0  0  0  0  0
    2.5696   -0.9425    0.0000 C   0  0  0  0  0  0  0  0  0  0  0  0
    4.0627   -0.7995    0.0000 C   0  0  0  0  0  0  0  0  0  0  0  0
    4.6854    0.5652    0.0000 C   0  0  0  0  0  0  0  0  0  0  0  0
    3.8149    1.7868    0.0000 C   0  0  0  0  0  0  0  0  0  0  0  0
    2.3217    1.6437    0.0000 C   0  0  0  0  0  0  0  0  0  0  0  0
    1.6991    0.2790    0.0000 C   0  0  0  0  0  0  0  0  0  0  0  0
   -2.4834   -1.3664    0.0000 N   0  0  0  0  0  0  0  0  0  0  0  0
   -3.8593   -1.9639    0.0000 O   0  0  0  0  0  0  0  0  0  0  0  0
  1  2  2  0
  2  3  1  0
  2  4  1  0
  4  5  1  0
  5  6  1  0
  6  7  2  0
  7  8  1  0
  8  9  1  0
  9 10  2  0
 10 11  1  0
 11 12  2  0
 12 13  1  0
 13 14  2  0
  4 15  1  0
 15 16  1  0
 14  6  1  0
 14  9  1  0
M  END
