029_coconut
     RDKit          2D

 23 24  0  0  0  0  0  0  0  0999 V2000
   -6.7395    0.3271    0.0000 C   0  0  0  0  0  0  0  0  0  0  0  0
   -5.2502    0.5063    0.0000 C   0  0  0  0  0  0  0  0  0  0  0  0
   -4.6607    1.8856    0.0000 N   0  0  0  0  0  0  0  0  0  0  0  0
   -3.1714    2.0647    0.0000 C   0  0  0  0  0  0  0  0  0  0  0  0
   -2.2717    0.8645    0.0000 C   0  0  0  0  0  0  0  0  0  0  0  0
   -0.7824    1.0436    0.0000 C   0  0  0  0  0  0  0  0  0  0  0  0
    0.1174   -0.1565    0.0000 O   0  0  0  0  0  0  0  0  0  0  0  0
    1.6066    0.0226    0.0000 C   0  0  0  0  0  0  0  0  0  0  0  0
    2.5064   -1.1776    0.0000 O   0  0  0  0  0  0  0  0  0  0  0  0
    3.9957   -0.9985    0.0000 C   0  0  0  0  0  0  0  0  0  0  0  0
    4.8954   -2.1986    0.0000 C   0  0  0  0  0  0  0  0  0  0  0  0
    4.3059   -3.5780    0.0000 O   0  0  0  0  0  0  0  0  0  0  0  0
    4.5852    0.3808    0.0000 C   0  0  0  0  0  0  0  0  0  0  0  0
    6.0744    0.5600    0.0000 O   0  0  0  0  0  0  0  0  0  0  0  0
    3.6854    1.5810    0.0000 C   0  0  0  0  0  0  0  0  0  0  0  0
    4.2749    2.9603    0.0000 O   0  0  0  0  0  0  0  0  0  0  0  0
    2.1961    1.4019    0.0000 C   0  0  0  0  0  0  0  0  0  0  0  0
    1.2964    2.6021    0.0000 O   0  0  0  0  0  0  0  0  0  0  0  0
   -2.8612   -0.5148    0.0000 C   0  0  0  0  0  0  0  0  0  0  0  0
   -1.9614   -1.7150    0.0000 C   0  0  0  0  0  0  0  0  0  0  0  0
   -2.5509   -3.0943    0.0000 O   0  0  0  0  0  0  0  0  0  0  0  0
   -4.3504   -0.6939    0.0000 C   0  0  0  0  0  0  0  0  0  0  0  0
   -4.9399   -2.0732    0.0000 O   0  0  0  0  0  0  0  0  0  0  0  0
  1  2  1  0
  2  3  1  0
  3  4  2  0
  4  5  1  0
  5  6  1  0
  6  7  1  0
  8  7  1  1
  8  9  1  0
  9 10  1  0
 10 11  1  1
 11 12  1  0
 10 13  1  0
 13 14  1  6
 13 15  1  0
 15 16  1  1
 15 17  1  0
 17 18  1  6
  5 19  2  0
 19 20  1  0
 20 21  1  0
 19 22  1  0
 22 23  1  0
 22  2  2  0
 17  8  1  0
M  END
