030_coconut
     RDKit          2D

 27 28  0  0  0  0  0  0  0  0999 V2000
   -4.8701   -2.7574    0.0000 C   0  0  0  0  0  0  0  0  0  0  0  0
   -4.8096   -1.2586    0.0000 C   0  0  0  0  0  0  0  0  0  0  0  0
   -6.0773   -0.4568    0.0000 C   0  0  0  0  0  0  0  0  0  0  0  0
   -6.0167    1.0420    0.0000 C   0  0  0  0  0  0  0  0  0  0  0  0
   -7.2844    1.8438    0.0000 O   0  0  0  0  0  0  0  0  0  0  0  0
   -4.6885    1.7390    0.0000 C   0  0  0  0  0  0  0  0  0  0  0  0
   -3.4208    0.9371    0.0000 C   0  0  0  0  0  0  0  0  0  0  0  0
   -2.8513    2.3248    0.0000 C   0  0  0  0  0  0  0  0  0  0  0  0
   -1.9553    0.6173    0.0000 C   0  0  0  0  0  0  0  0  0  0  0  0
   -3.4813   -0.5616    0.0000 C   0  0  0  0  0  0  0  0  0  0  0  0
   -3.0256   -1.9907    0.0000 O   0  0  0  0  0  0  0  0  0  0  0  0
   -1.9948   -0.3610    0.0000 C   0  0  0  0  0  0  0  0  0  0  0  0
   -1.0778   -1.5481    0.0000 C   0  0  0  0  0  0  0  0  0  0  0  0
    0.4087   -1.3474    0.0000 C   0  0  0  0  0  0  0  0  0  0  0  0
    1.3258   -2.5345    0.0000 C   0  0  0  0  0  0  0  0  0  0  0  0
    0.9782    0.0403    0.0000 O   0  0  0  0  0  0  0  0  0  0  0  0
    2.4648    0.2409    0.0000 C   0  0  0  0  0  0  0  0  0  0  0  0
    3.3818   -0.9461    0.0000 O   0  0  0  0  0  0  0  0  0  0  0  0
    4.8683   -0.7455    0.0000 C   0  0  0  0  0  0  0  0  0  0  0  0
    5.7853   -1.9326    0.0000 C   0  0  0  0  0  0  0  0  0  0  0  0
    5.2158   -3.3202    0.0000 O   0  0  0  0  0  0  0  0  0  0  0  0
    5.4378    0.6422    0.0000 C   0  0  0  0  0  0  0  0  0  0  0  0
    6.9243    0.8428    0.0000 O   0  0  0  0  0  0  0  0  0  0  0  0
    4.5208    1.8292    0.0000 C   0  0  0  0  0  0  0  0  0  0  0  0
    5.0903    3.2169    0.0000 O   0  0  0  0  0  0  0  0  0  0  0  0
    3.0343    1.6286    0.0000 C   0  0  0  0  0  0  0  0  0  0  0  0
    2.1173    2.8156    0.0000 O   0  0  0  0  0  0  0  0  0  0  0  0
  1  2  1  0
  2  3  2  0
  3  4  1  0
  4  5  2  0
  4  6  1  0
  6  7  1  0
  7  8  1  0
  7  9  1  0
  7 10  1  0
 10 11  1  1
 10 12  1  0
 12 13  2  3
 13 14  1  0
 14 15  1  6
 14 16  1  0
 17 16  1  1
 17 18  1  0
 18 19  1  0
 19 20  1  1
 20 21  1  0
 19 22  1  0
 22 23  1  6
 22 24  1  0
 24 25  1  1
 24 26  1  0
 26 27  1  6
 10  2  1  0
 26 17  1  0
M  END
