031_coconut
     RDKit          2D

 22 23  0  0  0  0  0  0  0  0999 V2000
   -3.7807   -3.8293    0.0000 C   0  0  0  0  0  0  0  0  0  0  0  0
   -2.5183   -3.0192    0.0000 O   0  0  0  0  0  0  0  0  0  0  0  0
   -2.5886   -1.5208    0.0000 C   0  0  0  0  0  0  0  0  0  0  0  0
   -3.9214   -0.8326    0.0000 C   0  0  0  0  0  0  0  0  0  0  0  0
   -3.9918    0.6658    0.0000 C   0  0  0  0  0  0  0  0  0  0  0  0
   -5.3246    1.3541    0.0000 C   0  0  0  0  0  0  0  0  0  0  0  0
   -5.3949    2.8524    0.0000 O   0  0  0  0  0  0  0  0  0  0  0  0
   -2.7293    1.4759    0.0000 C   0  0  0  0  0  0  0  0  0  0  0  0
   -1.3966    0.7876    0.0000 C   0  0  0  0  0  0  0  0  0  0  0  0
   -1.3262   -0.7107    0.0000 C   0  0  0  0  0  0  0  0  0  0  0  0
    0.0066   -1.3990    0.0000 O   0  0  0  0  0  0  0  0  0  0  0  0
    1.2690   -0.5889    0.0000 C   0  0  0  0  0  0  0  0  0  0  0  0
    2.6018   -1.2771    0.0000 O   0  0  0  0  0  0  0  0  0  0  0  0
    3.8642   -0.4670    0.0000 C   0  0  0  0  0  0  0  0  0  0  0  0
    5.1970   -1.1553    0.0000 C   0  0  0  0  0  0  0  0  0  0  0  0
    5.2674   -2.6536    0.0000 O   0  0  0  0  0  0  0  0  0  0  0  0
    3.7939    1.0313    0.0000 C   0  0  0  0  0  0  0  0  0  0  0  0
    5.0563    1.8414    0.0000 O   0  0  0  0  0  0  0  0  0  0  0  0
    2.4611    1.7196    0.0000 C   0  0  0  0  0  0  0  0  0  0  0  0
    2.3907    3.2179    0.0000 O   0  0  0  0  0  0  0  0  0  0  0  0
    1.1987    0.9095    0.0000 C   0  0  0  0  0  0  0  0  0  0  0  0
   -0.1341    1.5977    0.0000 O   0  0  0  0  0  0  0  0  0  0  0  0
  1  2  1  0
  2  3  1  0
  3  4  1  0
  4  5  2  0
  5  6  1  0
  6  7  2  0
  5  8  1  0
  8  9  2  0
  9 10  1  0
 10 11  1  0
 12 11  1  1
 12 13  1  0
 13 14  1  0
 14 15  1  1
 15 16  1  0
 14 17  1  0
 17 18  1  6
 17 19  1  0
 19 20  1  1
 19 21  1  0
 21 22  1  6
 10  3  2  0
 21 12  1  0
M  END
