032_coconut
     RDKit          2D

 22 23  0  0  0  0  0  0  0  0999 V2000
   -8.5557   -3.8932    0.0000 C   0  0  0  0  0  0  0  0  0  0  0  0
   -7.6415   -2.7040    0.0000 C   0  0  0  0  0  0  0  0  0  0  0  0
   -6.1545   -2.9011    0.0000 C   0  0  0  0  0  0  0  0  0  0  0  0
   -5.2403   -1.7119    0.0000 C   0  0  0  0  0  0  0  0  0  0  0  0
   -3.7533   -1.9090    0.0000 C   0  0  0  0  0  0  0  0  0  0  0  0
   -2.8391   -0.7198    0.0000 C   0  0  0  0  0  0  0  0  0  0  0  0
   -1.4528   -0.1470    0.0000 O   0  0  0  0  0  0  0  0  0  0  0  0
   -2.6420    0.7672    0.0000 C   0  0  0  0  0  0  0  0  0  0  0  0
   -3.2148    2.1535    0.0000 C   0  0  0  0  0  0  0  0  0  0  0  0
   -2.3006    3.3427    0.0000 C   0  0  0  0  0  0  0  0  0  0  0  0
   -2.1035    4.8297    0.0000 O   0  0  0  0  0  0  0  0  0  0  0  0
   -0.9143    3.9155    0.0000 C   0  0  0  0  0  0  0  0  0  0  0  0
    0.5727    3.7184    0.0000 C   0  0  0  0  0  0  0  0  0  0  0  0
    1.1455    2.3321    0.0000 C   0  0  0  0  0  0  0  0  0  0  0  0
    2.6325    2.1349    0.0000 C   0  0  0  0  0  0  0  0  0  0  0  0
    3.2053    0.7486    0.0000 C   0  0  0  0  0  0  0  0  0  0  0  0
    4.6923    0.5515    0.0000 C   0  0  0  0  0  0  0  0  0  0  0  0
    5.2651   -0.8348    0.0000 C   0  0  0  0  0  0  0  0  0  0  0  0
    6.7521   -1.0320    0.0000 C   0  0  0  0  0  0  0  0  0  0  0  0
    7.3248   -2.4183    0.0000 C   0  0  0  0  0  0  0  0  0  0  0  0
    6.4106   -3.6075    0.0000 O   0  0  0  0  0  0  0  0  0  0  0  0
    8.8118   -2.6154    0.0000 O   0  0  0  0  0  0  0  0  0  0  0  0
  1  2  1  0
  2  3  1  0
  3  4  1  0
  4  5  1  0
  5  6  1  0
  6  7  1  0
  7  8  1  0
  8  9  1  0
  9 10  1  0
 10 11  1  0
 11 12  1  0
 12 13  1  0
 13 14  1  0
 14 15  1  0
 15 16  1  0
 16 17  1  0
 17 18  1  0
 18 19  1  0
 19 20  1  0
 20 21  2  0
 20 22  1  0
  8  6  1  0
 12 10  1  0
M  END
