034_coconut
     RDKit          2D

 16 16  0  0  0  0  0  0  0  0999 V2000
   -4.4324    1.6011    0.0000 O   0  0  0  0  0  0  0  0  0  0  0  0
   -4.3224    0.1052    0.0000 C   0  0  0  0  0  0  0  0  0  0  0  0
   -5.5630   -0.7381    0.0000 O   0  0  0  0  0  0  0  0  0  0  0  0
   -2.9719   -0.5476    0.0000 C   0  0  0  0  0  0  0  0  0  0  0  0
   -1.7313    0.2957    0.0000 C   0  0  0  0  0  0  0  0  0  0  0  0
   -0.3808   -0.3570    0.0000 C   0  0  0  0  0  0  0  0  0  0  0  0
   -0.2708   -1.8530    0.0000 O   0  0  0  0  0  0  0  0  0  0  0  0
    0.8597    0.4862    0.0000 C   0  0  0  0  0  0  0  0  0  0  0  0
    0.7497    1.9822    0.0000 C   0  0  0  0  0  0  0  0  0  0  0  0
    1.9903    2.8254    0.0000 C   0  0  0  0  0  0  0  0  0  0  0  0
    3.3408    2.1727    0.0000 C   0  0  0  0  0  0  0  0  0  0  0  0
    3.4508    0.6768    0.0000 C   0  0  0  0  0  0  0  0  0  0  0  0
    2.2103   -0.1665    0.0000 C   0  0  0  0  0  0  0  0  0  0  0  0
    2.3203   -1.6624    0.0000 C   0  0  0  0  0  0  0  0  0  0  0  0
    1.0798   -2.5057    0.0000 O   0  0  0  0  0  0  0  0  0  0  0  0
    3.6708   -2.3151    0.0000 O   0  0  0  0  0  0  0  0  0  0  0  0
  1  2  2  0
  2  3  1  0
  2  4  1  0
  4  5  1  0
  5  6  1  0
  6  7  2  0
  6  8  1  0
  8  9  2  0
  9 10  1  0
 10 11  2  0
 11 12  1  0
 12 13  2  0
 13 14  1  0
 14 15  2  0
 14 16  1  0
 13  8  1  0
M  END
