035_coconut
     RDKit          2D

 24 24  0  0  0  0  0  0  0  0999 V2000
   -7.1842   -1.3235    0.0000 O   0  0  0  0  0  0  0  0  0  0  0  0
   -5.7117   -1.6095    0.0000 C   0  0  0  0  0  0  0  0  0  0  0  0
   -4.7278   -0.4773    0.0000 C   0  0  0  0  0  0  0  0  0  0  0  0
   -5.2164    0.9409    0.0000 O   0  0  0  0  0  0  0  0  0  0  0  0
   -3.2553   -0.7632    0.0000 C   0  0  0  0  0  0  0  0  0  0  0  0
   -2.7668   -2.1815    0.0000 O   0  0  0  0  0  0  0  0  0  0  0  0
   -2.2714    0.3690    0.0000 C   0  0  0  0  0  0  0  0  0  0  0  0
   -3.4036    1.3529    0.0000 O   0  0  0  0  0  0  0  0  0  0  0  0
   -1.1392   -0.6150    0.0000 C   0  0  0  0  0  0  0  0  0  0  0  0
   -1.4252   -2.0874    0.0000 O   0  0  0  0  0  0  0  0  0  0  0  0
    0.2790   -0.1264    0.0000 C   0  0  0  0  0  0  0  0  0  0  0  0
    1.4112   -1.1103    0.0000 C   0  0  0  0  0  0  0  0  0  0  0  0
    2.8294   -0.6217    0.0000 C   0  0  0  0  0  0  0  0  0  0  0  0
    3.1154    0.8507    0.0000 C   0  0  0  0  0  0  0  0  0  0  0  0
    4.5336    1.3393    0.0000 C   0  0  0  0  0  0  0  0  0  0  0  0
    5.6658    0.3554    0.0000 C   0  0  0  0  0  0  0  0  0  0  0  0
    7.0840    0.8440    0.0000 O   0  0  0  0  0  0  0  0  0  0  0  0
    5.3799   -1.1171    0.0000 C   0  0  0  0  0  0  0  0  0  0  0  0
    6.5121   -2.1010    0.0000 O   0  0  0  0  0  0  0  0  0  0  0  0
    3.9616   -1.6057    0.0000 C   0  0  0  0  0  0  0  0  0  0  0  0
   -1.2875    1.5012    0.0000 C   0  0  0  0  0  0  0  0  0  0  0  0
    0.1850    1.2152    0.0000 O   0  0  0  0  0  0  0  0  0  0  0  0
   -1.7760    2.9194    0.0000 C   0  0  0  0  0  0  0  0  0  0  0  0
   -0.7921    4.0516    0.0000 O   0  0  0  0  0  0  0  0  0  0  0  0
  1  2  2  0
  2  3  1  0
  3  4  1  6
  3  5  1  0
  5  6  1  6
  5  7  1  0
  7  8  1  1
  7  9  1  0
  9 10  2  0
  9 11  1  0
 11 12  2  3
 12 13  1  0
 13 14  1  0
 14 15  2  0
 15 16  1  0
 16 17  1  0
 16 18  2  0
 18 19  1  0
 18 20  1  0
  7 21  1  0
 21 22  1  1
 21 23  1  0
 23 24  1  0
 20 13  2  0
M  END
