036_coconut
     RDKit          2D

 24 24  0  0  0  0  0  0  0  0999 V2000
    5.7093   -3.4484    0.0000 C   0  0  0  0  0  0  0  0  0  0  0  0
    6.0426   -1.9859    0.0000 O   0  0  0  0  0  0  0  0  0  0  0  0
    4.9427   -0.9661    0.0000 C   0  0  0  0  0  0  0  0  0  0  0  0
    3.5095   -1.4087    0.0000 C   0  0  0  0  0  0  0  0  0  0  0  0
    2.4095   -0.3888    0.0000 C   0  0  0  0  0  0  0  0  0  0  0  0
    0.9763   -0.8315    0.0000 C   0  0  0  0  0  0  0  0  0  0  0  0
   -0.1236    0.1884    0.0000 C   0  0  0  0  0  0  0  0  0  0  0  0
   -1.5568   -0.2542    0.0000 C   0  0  0  0  0  0  0  0  0  0  0  0
   -1.8901   -1.7167    0.0000 O   0  0  0  0  0  0  0  0  0  0  0  0
   -2.6567    0.7657    0.0000 O   0  0  0  0  0  0  0  0  0  0  0  0
   -4.0899    0.3230    0.0000 C   0  0  0  0  0  0  0  0  0  0  0  0
   -5.1899    1.3429    0.0000 C   0  0  0  0  0  0  0  0  0  0  0  0
   -6.6231    0.9003    0.0000 C   0  0  0  0  0  0  0  0  0  0  0  0
   -6.9564   -0.5622    0.0000 O   0  0  0  0  0  0  0  0  0  0  0  0
   -7.7230    1.9201    0.0000 O   0  0  0  0  0  0  0  0  0  0  0  0
   -4.4232   -1.1395    0.0000 C   0  0  0  0  0  0  0  0  0  0  0  0
   -3.3233   -2.1594    0.0000 O   0  0  0  0  0  0  0  0  0  0  0  0
   -5.8564   -1.5821    0.0000 O   0  0  0  0  0  0  0  0  0  0  0  0
    2.7428    1.0737    0.0000 C   0  0  0  0  0  0  0  0  0  0  0  0
    4.1760    1.5163    0.0000 C   0  0  0  0  0  0  0  0  0  0  0  0
    4.5093    2.9788    0.0000 O   0  0  0  0  0  0  0  0  0  0  0  0
    3.4093    3.9987    0.0000 C   0  0  0  0  0  0  0  0  0  0  0  0
    5.2759    0.4965    0.0000 C   0  0  0  0  0  0  0  0  0  0  0  0
    6.7091    0.9391    0.0000 O   0  0  0  0  0  0  0  0  0  0  0  0
  1  2  1  0
  2  3  1  0
  3  4  1  0
  4  5  2  0
  5  6  1  0
  6  7  2  3
  7  8  1  0
  8  9  2  0
  8 10  1  0
 10 11  1  0
 11 12  1  6
 12 13  1  0
 13 14  2  0
 13 15  1  0
 11 16  1  0
 16 17  2  0
 16 18  1  0
  5 19  1  0
 19 20  2  0
 20 21  1  0
 21 22  1  0
 20 23  1  0
 23 24  1  0
 23  3  2  0
M  END
