037_coconut
     RDKit          2D

 24 24  0  0  0  0  0  0  0  0999 V2000
    5.0030   -3.9870    0.0000 C   0  0  0  0  0  0  0  0  0  0  0  0
    4.6578   -2.5272    0.0000 C   0  0  0  0  0  0  0  0  0  0  0  0
    5.7494   -1.4984    0.0000 C   0  0  0  0  0  0  0  0  0  0  0  0
    3.2210   -2.0963    0.0000 C   0  0  0  0  0  0  0  0  0  0  0  0
    2.8759   -0.6366    0.0000 C   0  0  0  0  0  0  0  0  0  0  0  0
    1.4391   -0.2056    0.0000 C   0  0  0  0  0  0  0  0  0  0  0  0
    0.3475   -1.2344    0.0000 C   0  0  0  0  0  0  0  0  0  0  0  0
    0.6927   -2.6942    0.0000 O   0  0  0  0  0  0  0  0  0  0  0  0
   -1.0893   -0.8035    0.0000 C   0  0  0  0  0  0  0  0  0  0  0  0
   -2.1808   -1.8323    0.0000 C   0  0  0  0  0  0  0  0  0  0  0  0
   -3.6176   -1.4013    0.0000 C   0  0  0  0  0  0  0  0  0  0  0  0
   -4.7092   -2.4301    0.0000 C   0  0  0  0  0  0  0  0  0  0  0  0
   -6.1460   -1.9992    0.0000 C   0  0  0  0  0  0  0  0  0  0  0  0
   -4.3640   -3.8899    0.0000 C   0  0  0  0  0  0  0  0  0  0  0  0
   -1.4344    0.6563    0.0000 C   0  0  0  0  0  0  0  0  0  0  0  0
   -2.8712    1.0872    0.0000 O   0  0  0  0  0  0  0  0  0  0  0  0
   -0.3428    1.6851    0.0000 C   0  0  0  0  0  0  0  0  0  0  0  0
   -0.6880    3.1448    0.0000 C   0  0  0  0  0  0  0  0  0  0  0  0
   -2.1248    3.5758    0.0000 O   0  0  0  0  0  0  0  0  0  0  0  0
    0.4036    4.1736    0.0000 C   0  0  0  0  0  0  0  0  0  0  0  0
    0.0584    5.6334    0.0000 C   0  0  0  0  0  0  0  0  0  0  0  0
    1.8403    3.7427    0.0000 C   0  0  0  0  0  0  0  0  0  0  0  0
    1.0939    1.2541    0.0000 C   0  0  0  0  0  0  0  0  0  0  0  0
    2.1855    2.2829    0.0000 O   0  0  0  0  0  0  0  0  0  0  0  0
  1  2  1  0
  2  3  1  0
  2  4  2  0
  4  5  1  0
  5  6  1  0
  6  7  2  0
  7  8  1  0
  7  9  1  0
  9 10  1  0
 10 11  1  0
 11 12  2  0
 12 13  1  0
 12 14  1  0
  9 15  2  0
 15 16  1  0
 15 17  1  0
 17 18  1  0
 18 19  2  0
 18 20  1  0
 20 21  1  0
 20 22  1  0
 17 23  2  0
 23 24  1  0
 23  6  1  0
M  END
