038_coconut
     RDKit          2D

 15 15  0  0  0  0  0  0  0  0999 V2000
    3.6193   -2.7588    0.0000 C   0  0  0  0  0  0  0  0  0  0  0  0
    3.7820   -1.2676    0.0000 O   0  0  0  0  0  0  0  0  0  0  0  0
    2.5719   -0.3812    0.0000 C   0  0  0  0  0  0  0  0  0  0  0  0
    1.1992   -0.9859    0.0000 C   0  0  0  0  0  0  0  0  0  0  0  0
   -0.0108   -0.0994    0.0000 C   0  0  0  0  0  0  0  0  0  0  0  0
   -1.3836   -0.7041    0.0000 C   0  0  0  0  0  0  0  0  0  0  0  0
   -2.5936    0.1823    0.0000 C   0  0  0  0  0  0  0  0  0  0  0  0
   -2.4309    1.6735    0.0000 O   0  0  0  0  0  0  0  0  0  0  0  0
   -3.9663   -0.4224    0.0000 C   0  0  0  0  0  0  0  0  0  0  0  0
   -4.1290   -1.9135    0.0000 O   0  0  0  0  0  0  0  0  0  0  0  0
   -5.1764    0.4641    0.0000 O   0  0  0  0  0  0  0  0  0  0  0  0
    0.1518    1.3917    0.0000 C   0  0  0  0  0  0  0  0  0  0  0  0
    1.5245    1.9964    0.0000 C   0  0  0  0  0  0  0  0  0  0  0  0
    2.7346    1.1100    0.0000 C   0  0  0  0  0  0  0  0  0  0  0  0
    4.1073    1.7147    0.0000 O   0  0  0  0  0  0  0  0  0  0  0  0
  1  2  1  0
  2  3  1  0
  3  4  1  0
  4  5  2  0
  5  6  1  0
  6  7  1  0
  7  8  1  0
  7  9  1  0
  9 10  2  0
  9 11  1  0
  5 12  1  0
 12 13  2  0
 13 14  1  0
 14 15  1  0
 14  3  2  0
M  END
