039_coconut
     RDKit          2D

 20 20  0  0  0  0  0  0  0  0999 V2000
   -6.4053   -0.7470    0.0000 C   0  0  0  0  0  0  0  0  0  0  0  0
   -4.9871   -1.2356    0.0000 C   0  0  0  0  0  0  0  0  0  0  0  0
   -4.7012   -2.7081    0.0000 C   0  0  0  0  0  0  0  0  0  0  0  0
   -3.8548   -0.2518    0.0000 C   0  0  0  0  0  0  0  0  0  0  0  0
   -2.4367   -0.7405    0.0000 C   0  0  0  0  0  0  0  0  0  0  0  0
   -1.3044    0.2434    0.0000 C   0  0  0  0  0  0  0  0  0  0  0  0
   -1.5903    1.7159    0.0000 C   0  0  0  0  0  0  0  0  0  0  0  0
   -3.0084    2.2045    0.0000 O   0  0  0  0  0  0  0  0  0  0  0  0
   -0.4580    2.6997    0.0000 C   0  0  0  0  0  0  0  0  0  0  0  0
    0.9602    2.2110    0.0000 C   0  0  0  0  0  0  0  0  0  0  0  0
    2.0925    3.1949    0.0000 O   0  0  0  0  0  0  0  0  0  0  0  0
    1.2461    0.7385    0.0000 C   0  0  0  0  0  0  0  0  0  0  0  0
    2.6642    0.2499    0.0000 C   0  0  0  0  0  0  0  0  0  0  0  0
    3.7965    1.2337    0.0000 O   0  0  0  0  0  0  0  0  0  0  0  0
    2.9501   -1.2226    0.0000 C   0  0  0  0  0  0  0  0  0  0  0  0
    4.3683   -1.7113    0.0000 C   0  0  0  0  0  0  0  0  0  0  0  0
    4.6542   -3.1838    0.0000 C   0  0  0  0  0  0  0  0  0  0  0  0
    5.5006   -0.7275    0.0000 C   0  0  0  0  0  0  0  0  0  0  0  0
    0.1138   -0.2453    0.0000 C   0  0  0  0  0  0  0  0  0  0  0  0
    0.3997   -1.7178    0.0000 O   0  0  0  0  0  0  0  0  0  0  0  0
  1  2  1  0
  2  3  1  0
  2  4  2  0
  4  5  1  0
  5  6  1  0
  6  7  1  0
  7  8  1  0
  7  9  2  0
  9 10  1  0
 10 11  1  0
 10 12  2  0
 12 13  1  0
 13 14  2  0
 13 15  1  0
 15 16  1  0
 16 17  1  0
 16 18  1  0
 12 19  1  0
 19 20  1  0
 19  6  2  0
M  END
