040_coconut
     RDKit          2D

 19 19  0  0  0  0  0  0  0  0999 V2000
   -6.0241   -0.0971    0.0000 C   0  0  0  0  0  0  0  0  0  0  0  0
   -4.6767   -0.7564    0.0000 C   0  0  0  0  0  0  0  0  0  0  0  0
   -4.5740   -2.2528    0.0000 C   0  0  0  0  0  0  0  0  0  0  0  0
   -3.4321    0.0809    0.0000 C   0  0  0  0  0  0  0  0  0  0  0  0
   -2.0848   -0.5784    0.0000 C   0  0  0  0  0  0  0  0  0  0  0  0
   -0.8402    0.2588    0.0000 C   0  0  0  0  0  0  0  0  0  0  0  0
   -0.9429    1.7553    0.0000 C   0  0  0  0  0  0  0  0  0  0  0  0
   -2.2903    2.4146    0.0000 O   0  0  0  0  0  0  0  0  0  0  0  0
    0.3017    2.5925    0.0000 C   0  0  0  0  0  0  0  0  0  0  0  0
    1.6491    1.9333    0.0000 C   0  0  0  0  0  0  0  0  0  0  0  0
    2.8937    2.7705    0.0000 O   0  0  0  0  0  0  0  0  0  0  0  0
    1.7518    0.4368    0.0000 C   0  0  0  0  0  0  0  0  0  0  0  0
    3.0992   -0.2224    0.0000 C   0  0  0  0  0  0  0  0  0  0  0  0
    4.3438    0.6148    0.0000 O   0  0  0  0  0  0  0  0  0  0  0  0
    3.2019   -1.7189    0.0000 C   0  0  0  0  0  0  0  0  0  0  0  0
    4.5493   -2.3782    0.0000 C   0  0  0  0  0  0  0  0  0  0  0  0
    1.9573   -2.5561    0.0000 C   0  0  0  0  0  0  0  0  0  0  0  0
    0.5072   -0.4004    0.0000 C   0  0  0  0  0  0  0  0  0  0  0  0
    0.6100   -1.8969    0.0000 O   0  0  0  0  0  0  0  0  0  0  0  0
  1  2  1  0
  2  3  1  0
  2  4  2  0
  4  5  1  0
  5  6  1  0
  6  7  1  0
  7  8  1  0
  7  9  2  0
  9 10  1  0
 10 11  1  0
 10 12  2  0
 12 13  1  0
 13 14  2  0
 13 15  1  0
 15 16  1  0
 15 17  1  0
 12 18  1  0
 18 19  1  0
 18  6  2  0
M  END
