041_coconut
     RDKit          2D

 25 25  0  0  0  0  0  0  0  0999 V2000
   -6.3952   -1.9640    0.0000 C   0  0  0  0  0  0  0  0  0  0  0  0
   -4.9778   -2.4550    0.0000 C   0  0  0  0  0  0  0  0  0  0  0  0
   -4.6943   -3.9279    0.0000 C   0  0  0  0  0  0  0  0  0  0  0  0
   -3.8439   -1.4730    0.0000 C   0  0  0  0  0  0  0  0  0  0  0  0
   -2.4265   -1.9640    0.0000 C   0  0  0  0  0  0  0  0  0  0  0  0
   -1.2926   -0.9820    0.0000 C   0  0  0  0  0  0  0  0  0  0  0  0
   -1.5761    0.4910    0.0000 C   0  0  0  0  0  0  0  0  0  0  0  0
   -2.9935    0.9820    0.0000 O   0  0  0  0  0  0  0  0  0  0  0  0
   -0.4422    1.4730    0.0000 C   0  0  0  0  0  0  0  0  0  0  0  0
   -0.7257    2.9459    0.0000 C   0  0  0  0  0  0  0  0  0  0  0  0
    0.4082    3.9279    0.0000 C   0  0  0  0  0  0  0  0  0  0  0  0
    0.1247    5.4009    0.0000 C   0  0  0  0  0  0  0  0  0  0  0  0
    1.2586    6.3829    0.0000 C   0  0  0  0  0  0  0  0  0  0  0  0
   -1.2926    5.8919    0.0000 C   0  0  0  0  0  0  0  0  0  0  0  0
    0.9751    0.9820    0.0000 C   0  0  0  0  0  0  0  0  0  0  0  0
    2.1090    1.9640    0.0000 O   0  0  0  0  0  0  0  0  0  0  0  0
    1.2586   -0.4910    0.0000 C   0  0  0  0  0  0  0  0  0  0  0  0
    2.6760   -0.9820    0.0000 C   0  0  0  0  0  0  0  0  0  0  0  0
    3.8099   -0.0000    0.0000 O   0  0  0  0  0  0  0  0  0  0  0  0
    2.9595   -2.4550    0.0000 C   0  0  0  0  0  0  0  0  0  0  0  0
    4.3768   -2.9459    0.0000 C   0  0  0  0  0  0  0  0  0  0  0  0
    4.6603   -4.4189    0.0000 C   0  0  0  0  0  0  0  0  0  0  0  0
    5.5107   -1.9640    0.0000 C   0  0  0  0  0  0  0  0  0  0  0  0
    0.1247   -1.4730    0.0000 C   0  0  0  0  0  0  0  0  0  0  0  0
    0.4082   -2.9459    0.0000 O   0  0  0  0  0  0  0  0  0  0  0  0
  1  2  1  0
  2  3  1  0
  2  4  2  0
  4  5  1  0
  5  6  1  0
  6  7  2  0
  7  8  1  0
  7  9  1  0
  9 10  1  0
 10 11  1  0
 11 12  2  0
 12 13  1  0
 12 14  1  0
  9 15  2  0
 15 16  1  0
 15 17  1  0
 17 18  1  0
 18 19  2  0
 18 20  1  0
 20 21  1  0
 21 22  1  0
 21 23  1  0
 17 24  2  0
 24 25  1  0
 24  6  1  0
M  END
