042_coconut
     RDKit          2D

 16 16  0  0  0  0  0  0  0  0999 V2000
    1.7714   -3.4022    0.0000 C   0  0  0  0  0  0  0  0  0  0  0  0
    1.8769   -1.9059    0.0000 C   0  0  0  0  0  0  0  0  0  0  0  0
    3.1494   -1.1117    0.0000 N   0  0  0  0  0  0  0  0  0  0  0  0
    2.7872    0.3439    0.0000 C   0  0  0  0  0  0  0  0  0  0  0  0
    3.7520    1.4924    0.0000 C   0  0  0  0  0  0  0  0  0  0  0  0
    3.2398    2.9023    0.0000 O   0  0  0  0  0  0  0  0  0  0  0  0
    5.2291    1.2312    0.0000 O   0  0  0  0  0  0  0  0  0  0  0  0
    1.2910    0.4493    0.0000 S   0  0  0  0  0  0  0  0  0  0  0  0
    0.7283   -0.9411    0.0000 C   0  0  0  0  0  0  0  0  0  0  0  0
   -0.7273   -1.3033    0.0000 C   0  0  0  0  0  0  0  0  0  0  0  0
   -1.7687   -0.2237    0.0000 C   0  0  0  0  0  0  0  0  0  0  0  0
   -3.2244   -0.5858    0.0000 O   0  0  0  0  0  0  0  0  0  0  0  0
   -4.2658    0.4938    0.0000 P   0  0  0  0  0  0  0  0  0  0  0  0
   -5.3454   -0.5476    0.0000 O   0  0  0  0  0  0  0  0  0  0  0  0
   -3.1862    1.5352    0.0000 O   0  0  0  0  0  0  0  0  0  0  0  0
   -5.3072    1.5733    0.0000 O   0  0  0  0  0  0  0  0  0  0  0  0
  1  2  1  0
  2  3  1  0
  3  4  2  0
  4  5  1  0
  5  6  2  0
  5  7  1  0
  4  8  1  0
  8  9  1  0
  9 10  1  0
 10 11  1  0
 11 12  1  0
 12 13  1  0
 13 14  2  0
 13 15  1  0
 13 16  1  0
  9  2  2  0
M  END
