043_coconut
     RDKit          2D

 15 15  0  0  0  0  0  0  0  0999 V2000
   -8.0370    0.5257    0.0000 C   0  0  0  0  0  0  0  0  0  0  0  0
   -6.7949   -0.3152    0.0000 C   0  0  0  0  0  0  0  0  0  0  0  0
   -5.4456    0.3400    0.0000 C   0  0  0  0  0  0  0  0  0  0  0  0
   -4.2035   -0.5009    0.0000 C   0  0  0  0  0  0  0  0  0  0  0  0
   -2.8542    0.1544    0.0000 C   0  0  0  0  0  0  0  0  0  0  0  0
   -1.6120   -0.6866    0.0000 C   0  0  0  0  0  0  0  0  0  0  0  0
   -0.2627   -0.0313    0.0000 C   0  0  0  0  0  0  0  0  0  0  0  0
    0.9794   -0.8722    0.0000 C   0  0  0  0  0  0  0  0  0  0  0  0
    2.3287   -0.2170    0.0000 C   0  0  0  0  0  0  0  0  0  0  0  0
    2.4359    1.2792    0.0000 C   0  0  0  0  0  0  0  0  0  0  0  0
    3.7852    1.9344    0.0000 C   0  0  0  0  0  0  0  0  0  0  0  0
    5.0273    1.0935    0.0000 C   0  0  0  0  0  0  0  0  0  0  0  0
    4.9202   -0.4026    0.0000 C   0  0  0  0  0  0  0  0  0  0  0  0
    6.1623   -1.2435    0.0000 O   0  0  0  0  0  0  0  0  0  0  0  0
    3.5708   -1.0579    0.0000 O   0  0  0  0  0  0  0  0  0  0  0  0
  1  2  1  0
  2  3  1  0
  3  4  1  0
  4  5  1  0
  5  6  1  0
  6  7  1  0
  7  8  1  0
  8  9  1  0
  9 10  1  0
 10 11  1  0
 11 12  1  0
 12 13  1  0
 13 14  2  0
 13 15  1  0
 15  9  1  0
M  END
