044_coconut
     RDKit          2D

 20 20  0  0  0  0  0  0  0  0999 V2000
    2.4056   -3.5554    0.0000 C   0  0  0  0  0  0  0  0  0  0  0  0
    1.0927   -2.8299    0.0000 C   0  0  0  0  0  0  0  0  0  0  0  0
   -0.1920   -3.6043    0.0000 O   0  0  0  0  0  0  0  0  0  0  0  0
    1.0644   -1.3302    0.0000 N   0  0  0  0  0  0  0  0  0  0  0  0
   -0.2485   -0.6048    0.0000 C   0  0  0  0  0  0  0  0  0  0  0  0
   -1.5332   -1.3791    0.0000 C   0  0  0  0  0  0  0  0  0  0  0  0
   -1.5049   -2.8788    0.0000 O   0  0  0  0  0  0  0  0  0  0  0  0
   -2.8461   -0.6537    0.0000 O   0  0  0  0  0  0  0  0  0  0  0  0
   -2.8743    0.8461    0.0000 C   0  0  0  0  0  0  0  0  0  0  0  0
   -4.1872    1.5715    0.0000 C   0  0  0  0  0  0  0  0  0  0  0  0
   -5.4719    0.7972    0.0000 O   0  0  0  0  0  0  0  0  0  0  0  0
   -1.5896    1.6204    0.0000 C   0  0  0  0  0  0  0  0  0  0  0  0
   -1.6178    3.1201    0.0000 O   0  0  0  0  0  0  0  0  0  0  0  0
   -0.2767    0.8950    0.0000 C   0  0  0  0  0  0  0  0  0  0  0  0
    1.0080    1.6693    0.0000 O   0  0  0  0  0  0  0  0  0  0  0  0
    2.3209    0.9438    0.0000 C   0  0  0  0  0  0  0  0  0  0  0  0
    2.3491   -0.5559    0.0000 C   0  0  0  0  0  0  0  0  0  0  0  0
    3.6056    1.7181    0.0000 C   0  0  0  0  0  0  0  0  0  0  0  0
    3.5774    3.2179    0.0000 O   0  0  0  0  0  0  0  0  0  0  0  0
    4.9185    0.9927    0.0000 O   0  0  0  0  0  0  0  0  0  0  0  0
  1  2  1  0
  2  3  2  0
  2  4  1  0
  5  4  1  1
  5  6  1  0
  6  7  1  0
  6  8  1  0
  8  9  1  0
  9 10  1  6
 10 11  1  0
  9 12  1  0
 12 13  1  6
 12 14  1  0
 14 15  1  6
 15 16  1  0
 16 17  1  1
 16 18  1  0
 18 19  2  0
 18 20  1  0
 14  5  1  0
M  END
