045_coconut
     RDKit          2D

 16 16  0  0  0  0  0  0  0  0999 V2000
    4.1167    2.1613    0.0000 N   0  0  0  0  0  0  0  0  0  0  0  0
    3.2495    0.9374    0.0000 C   0  0  0  0  0  0  0  0  0  0  0  0
    1.7560    1.0764    0.0000 C   0  0  0  0  0  0  0  0  0  0  0  0
    0.9906    2.3665    0.0000 N   0  0  0  0  0  0  0  0  0  0  0  0
   -0.4728    2.0372    0.0000 C   0  0  0  0  0  0  0  0  0  0  0  0
   -0.6119    0.5437    0.0000 C   0  0  0  0  0  0  0  0  0  0  0  0
   -1.9019   -0.2217    0.0000 C   0  0  0  0  0  0  0  0  0  0  0  0
   -3.2098    0.5128    0.0000 C   0  0  0  0  0  0  0  0  0  0  0  0
   -4.4998   -0.2526    0.0000 C   0  0  0  0  0  0  0  0  0  0  0  0
   -4.4820   -1.7525    0.0000 O   0  0  0  0  0  0  0  0  0  0  0  0
   -5.8077    0.4819    0.0000 O   0  0  0  0  0  0  0  0  0  0  0  0
    0.7656   -0.0501    0.0000 C   0  0  0  0  0  0  0  0  0  0  0  0
    1.0949   -1.5135    0.0000 C   0  0  0  0  0  0  0  0  0  0  0  0
    2.5269   -1.9601    0.0000 C   0  0  0  0  0  0  0  0  0  0  0  0
    3.6296   -0.9432    0.0000 O   0  0  0  0  0  0  0  0  0  0  0  0
    2.8561   -3.4235    0.0000 O   0  0  0  0  0  0  0  0  0  0  0  0
  1  2  1  0
  2  3  1  0
  3  4  1  0
  4  5  1  0
  5  6  2  0
  6  7  1  0
  7  8  1  0
  8  9  1  0
  9 10  2  0
  9 11  1  0
  6 12  1  0
 12 13  1  0
 13 14  1  0
 14 15  2  0
 14 16  1  0
 12  3  2  0
M  END
