046_coconut
     RDKit          2D

 15 15  0  0  0  0  0  0  0  0999 V2000
   -4.7749    1.6422    0.0000 C   0  0  0  0  0  0  0  0  0  0  0  0
   -4.2729    0.2287    0.0000 N   0  0  0  0  0  0  0  0  0  0  0  0
   -3.7709   -1.1848    0.0000 C   0  0  0  0  0  0  0  0  0  0  0  0
   -5.6864   -0.2733    0.0000 C   0  0  0  0  0  0  0  0  0  0  0  0
   -2.8594    0.7307    0.0000 C   0  0  0  0  0  0  0  0  0  0  0  0
   -1.7179   -0.2425    0.0000 C   0  0  0  0  0  0  0  0  0  0  0  0
   -0.3044    0.2595    0.0000 O   0  0  0  0  0  0  0  0  0  0  0  0
    0.8371   -0.7136    0.0000 C   0  0  0  0  0  0  0  0  0  0  0  0
    0.5651   -2.1888    0.0000 O   0  0  0  0  0  0  0  0  0  0  0  0
    2.2506   -0.2117    0.0000 C   0  0  0  0  0  0  0  0  0  0  0  0
    2.5226    1.2635    0.0000 C   0  0  0  0  0  0  0  0  0  0  0  0
    3.9361    1.7654    0.0000 C   0  0  0  0  0  0  0  0  0  0  0  0
    5.0776    0.7923    0.0000 C   0  0  0  0  0  0  0  0  0  0  0  0
    4.8056   -0.6828    0.0000 N   0  0  0  0  0  0  0  0  0  0  0  0
    3.3921   -1.1848    0.0000 C   0  0  0  0  0  0  0  0  0  0  0  0
  1  2  1  0
  2  3  1  0
  2  4  1  0
  2  5  1  0
  5  6  1  0
  6  7  1  0
  7  8  1  0
  8  9  2  0
  8 10  1  0
 10 11  2  0
 11 12  1  0
 12 13  2  0
 13 14  1  0
 14 15  2  0
 15 10  1  0
M  CHG  1   2   1
M  END
