047_coconut
     RDKit          2D

 16 16  0  0  0  0  0  0  0  0999 V2000
   -4.7674    0.4404    0.0000 C   0  0  0  0  0  0  0  0  0  0  0  0
   -3.2769    0.6092    0.0000 C   0  0  0  0  0  0  0  0  0  0  0  0
   -2.6779    1.9844    0.0000 N   0  0  0  0  0  0  0  0  0  0  0  0
   -1.1875    2.1533    0.0000 C   0  0  0  0  0  0  0  0  0  0  0  0
   -0.2960    0.9470    0.0000 C   0  0  0  0  0  0  0  0  0  0  0  0
    1.1945    1.1158    0.0000 C   0  0  0  0  0  0  0  0  0  0  0  0
    2.0859   -0.0905    0.0000 O   0  0  0  0  0  0  0  0  0  0  0  0
    3.5764    0.0784    0.0000 P   0  0  0  0  0  0  0  0  0  0  0  0
    3.7453   -1.4121    0.0000 O   0  0  0  0  0  0  0  0  0  0  0  0
    3.4075    1.5688    0.0000 O   0  0  0  0  0  0  0  0  0  0  0  0
    5.0669    0.2472    0.0000 O   0  0  0  0  0  0  0  0  0  0  0  0
   -0.8950   -0.4282    0.0000 C   0  0  0  0  0  0  0  0  0  0  0  0
   -0.0035   -1.6346    0.0000 C   0  0  0  0  0  0  0  0  0  0  0  0
   -0.6025   -3.0098    0.0000 O   0  0  0  0  0  0  0  0  0  0  0  0
   -2.3854   -0.5971    0.0000 C   0  0  0  0  0  0  0  0  0  0  0  0
   -2.9844   -1.9723    0.0000 O   0  0  0  0  0  0  0  0  0  0  0  0
  1  2  1  0
  2  3  1  0
  3  4  2  0
  4  5  1  0
  5  6  1  0
  6  7  1  0
  7  8  1  0
  8  9  2  0
  8 10  1  0
  8 11  1  0
  5 12  2  0
 12 13  1  0
 13 14  2  0
 12 15  1  0
 15 16  1  0
 15  2  2  0
M  END
