050_coconut
     RDKit          2D

 17 19  0  0  0  0  0  0  0  0999 V2000
    5.5733    0.7398    0.0000 C   0  0  0  0  0  0  0  0  0  0  0  0
    5.3361   -0.7413    0.0000 C   0  0  0  0  0  0  0  0  0  0  0  0
    3.9348   -1.2764    0.0000 C   0  0  0  0  0  0  0  0  0  0  0  0
    2.7707   -0.3303    0.0000 C   0  0  0  0  0  0  0  0  0  0  0  0
    1.3694   -0.8654    0.0000 C   0  0  0  0  0  0  0  0  0  0  0  0
    0.2053    0.0806    0.0000 N   0  0  0  0  0  0  0  0  0  0  0  0
   -1.1960   -0.4545    0.0000 C   0  0  0  0  0  0  0  0  0  0  0  0
   -1.4332   -1.9356    0.0000 N   0  0  0  0  0  0  0  0  0  0  0  0
   -2.8345   -2.4707    0.0000 C   0  0  0  0  0  0  0  0  0  0  0  0
   -3.9986   -1.5247    0.0000 N   0  0  0  0  0  0  0  0  0  0  0  0
   -3.7613   -0.0435    0.0000 C   0  0  0  0  0  0  0  0  0  0  0  0
   -4.7033    1.1238    0.0000 N   0  0  0  0  0  0  0  0  0  0  0  0
   -3.8841    2.3804    0.0000 C   0  0  0  0  0  0  0  0  0  0  0  0
   -2.4359    1.9896    0.0000 N   0  0  0  0  0  0  0  0  0  0  0  0
   -2.3600    0.4915    0.0000 C   0  0  0  0  0  0  0  0  0  0  0  0
    3.0080    1.1508    0.0000 C   0  0  0  0  0  0  0  0  0  0  0  0
    4.4093    1.6859    0.0000 C   0  0  0  0  0  0  0  0  0  0  0  0
  1  2  2  0
  2  3  1  0
  3  4  2  0
  4  5  1  0
  5  6  1  0
  6  7  1  0
  7  8  1  0
  8  9  2  0
  9 10  1  0
 10 11  2  0
 11 12  1  0
 12 13  2  0
 13 14  1  0
 14 15  1  0
  4 16  1  0
 16 17  2  0
 17  1  1  0
 15  7  2  0
 15 11  1  0
M  END
