051_coconut
     RDKit          2D

 20 22  0  0  0  0  0  0  0  0999 V2000
   -6.2754   -1.7076    0.0000 C   0  0  0  0  0  0  0  0  0  0  0  0
   -5.0491   -0.8437    0.0000 C   0  0  0  0  0  0  0  0  0  0  0  0
   -5.1841    0.6502    0.0000 O   0  0  0  0  0  0  0  0  0  0  0  0
   -3.6879   -1.4738    0.0000 O   0  0  0  0  0  0  0  0  0  0  0  0
   -2.4616   -0.6099    0.0000 C   0  0  0  0  0  0  0  0  0  0  0  0
   -2.5966    0.8840    0.0000 C   0  0  0  0  0  0  0  0  0  0  0  0
   -1.3703    1.7478    0.0000 C   0  0  0  0  0  0  0  0  0  0  0  0
   -0.1440    2.6117    0.0000 C   0  0  0  0  0  0  0  0  0  0  0  0
    1.2173    1.9816    0.0000 C   0  0  0  0  0  0  0  0  0  0  0  0
    1.3522    0.4877    0.0000 C   0  0  0  0  0  0  0  0  0  0  0  0
    2.7135   -0.1424    0.0000 N   0  0  0  0  0  0  0  0  0  0  0  0
    2.8485   -1.6363    0.0000 C   0  0  0  0  0  0  0  0  0  0  0  0
    4.2097   -2.2664    0.0000 C   0  0  0  0  0  0  0  0  0  0  0  0
    5.4360   -1.4026    0.0000 O   0  0  0  0  0  0  0  0  0  0  0  0
    5.3010    0.0914    0.0000 C   0  0  0  0  0  0  0  0  0  0  0  0
    3.9398    0.7214    0.0000 C   0  0  0  0  0  0  0  0  0  0  0  0
    0.1259   -0.3762    0.0000 C   0  0  0  0  0  0  0  0  0  0  0  0
   -1.1003   -1.2400    0.0000 C   0  0  0  0  0  0  0  0  0  0  0  0
   -0.0090    1.1177    0.0000 C   0  0  0  0  0  0  0  0  0  0  0  0
    0.7344    1.4055    0.0000 O   0  0  0  0  0  0  0  0  0  0  0  0
  1  2  1  0
  2  3  2  0
  2  4  1  0
  4  5  1  0
  5  6  1  0
  6  7  1  0
  7  8  1  0
  8  9  1  0
  9 10  1  0
 10 11  1  0
 11 12  1  0
 12 13  1  0
 13 14  1  0
 14 15  1  0
 15 16  1  0
 10 17  1  0
 17 18  1  0
 17 19  1  0
 19 20  2  0
 18  5  1  0
 19  7  1  0
 16 11  1  0
M  END
