052_coconut
     RDKit          2D

 24 26  0  0  0  0  0  0  0  0999 V2000
    6.8133   -2.2318    0.0000 N   0  0  0  0  0  0  0  0  0  0  0  0
    5.6166   -1.3274    0.0000 C   0  0  0  0  0  0  0  0  0  0  0  0
    4.2351   -1.9116    0.0000 N   0  0  0  0  0  0  0  0  0  0  0  0
    3.0384   -1.0072    0.0000 C   0  0  0  0  0  0  0  0  0  0  0  0
    3.2233    0.4814    0.0000 C   0  0  0  0  0  0  0  0  0  0  0  0
    4.6048    1.0656    0.0000 C   0  0  0  0  0  0  0  0  0  0  0  0
    4.7897    2.5541    0.0000 O   0  0  0  0  0  0  0  0  0  0  0  0
    5.8015    0.1612    0.0000 N   0  0  0  0  0  0  0  0  0  0  0  0
    2.0266    1.3858    0.0000 N   0  0  0  0  0  0  0  0  0  0  0  0
    0.6450    0.8016    0.0000 C   0  0  0  0  0  0  0  0  0  0  0  0
   -0.5517    1.7060    0.0000 C   0  0  0  0  0  0  0  0  0  0  0  0
   -0.3668    3.1946    0.0000 S   0  0  0  0  0  0  0  0  0  0  0  0
   -1.9333    1.1218    0.0000 C   0  0  0  0  0  0  0  0  0  0  0  0
   -3.1300    2.0262    0.0000 S   0  0  0  0  0  0  0  0  0  0  0  0
   -2.1182   -0.3667    0.0000 C   0  0  0  0  0  0  0  0  0  0  0  0
   -3.4997   -0.9509    0.0000 C   0  0  0  0  0  0  0  0  0  0  0  0
   -4.6964   -0.0465    0.0000 O   0  0  0  0  0  0  0  0  0  0  0  0
   -6.0780   -0.6307    0.0000 P   0  0  0  0  0  0  0  0  0  0  0  0
   -6.6622    0.7509    0.0000 O   0  0  0  0  0  0  0  0  0  0  0  0
   -5.4938   -2.0122    0.0000 O   0  0  0  0  0  0  0  0  0  0  0  0
   -7.4596   -1.2148    0.0000 O   0  0  0  0  0  0  0  0  0  0  0  0
   -0.9215   -1.2711    0.0000 O   0  0  0  0  0  0  0  0  0  0  0  0
    0.4601   -0.6869    0.0000 C   0  0  0  0  0  0  0  0  0  0  0  0
    1.6568   -1.5913    0.0000 N   0  0  0  0  0  0  0  0  0  0  0  0
  1  2  1  0
  2  3  2  0
  3  4  1  0
  4  5  2  0
  5  6  1  0
  6  7  2  0
  6  8  1  0
  5  9  1  0
  9 10  1  0
 10 11  1  0
 11 12  1  0
 11 13  2  0
 13 14  1  0
 13 15  1  0
 15 16  1  0
 16 17  1  0
 17 18  1  0
 18 19  2  0
 18 20  1  0
 18 21  1  0
 15 22  1  0
 22 23  1  0
 23 24  1  0
  8  2  1  0
 23 10  1  0
 24  4  1  0
M  END
