053_coconut
     RDKit          2D

 22 24  0  0  0  0  0  0  0  0999 V2000
   -5.6052   -2.7124    0.0000 O   0  0  0  0  0  0  0  0  0  0  0  0
   -4.6507   -1.5553    0.0000 C   0  0  0  0  0  0  0  0  0  0  0  0
   -5.1756   -0.1501    0.0000 C   0  0  0  0  0  0  0  0  0  0  0  0
   -4.2211    1.0070    0.0000 C   0  0  0  0  0  0  0  0  0  0  0  0
   -4.7460    2.4122    0.0000 O   0  0  0  0  0  0  0  0  0  0  0  0
   -2.7418    0.7590    0.0000 C   0  0  0  0  0  0  0  0  0  0  0  0
   -1.7873    1.9162    0.0000 C   0  0  0  0  0  0  0  0  0  0  0  0
   -0.3080    1.6682    0.0000 C   0  0  0  0  0  0  0  0  0  0  0  0
    0.6465    2.8253    0.0000 O   0  0  0  0  0  0  0  0  0  0  0  0
    0.2169    0.2630    0.0000 C   0  0  0  0  0  0  0  0  0  0  0  0
    1.6963    0.0150    0.0000 C   0  0  0  0  0  0  0  0  0  0  0  0
    2.2212   -1.3902    0.0000 C   0  0  0  0  0  0  0  0  0  0  0  0
    3.7005   -1.6382    0.0000 C   0  0  0  0  0  0  0  0  0  0  0  0
    4.2254   -3.0434    0.0000 O   0  0  0  0  0  0  0  0  0  0  0  0
    4.6550   -0.4810    0.0000 C   0  0  0  0  0  0  0  0  0  0  0  0
    6.1343   -0.7291    0.0000 O   0  0  0  0  0  0  0  0  0  0  0  0
    4.1301    0.9241    0.0000 C   0  0  0  0  0  0  0  0  0  0  0  0
    5.0846    2.0813    0.0000 O   0  0  0  0  0  0  0  0  0  0  0  0
    2.6507    1.1721    0.0000 C   0  0  0  0  0  0  0  0  0  0  0  0
   -0.7375   -0.8942    0.0000 O   0  0  0  0  0  0  0  0  0  0  0  0
   -2.2169   -0.6462    0.0000 C   0  0  0  0  0  0  0  0  0  0  0  0
   -3.1714   -1.8033    0.0000 C   0  0  0  0  0  0  0  0  0  0  0  0
  1  2  1  0
  2  3  2  0
  3  4  1  0
  4  5  1  0
  4  6  2  0
  6  7  1  0
  7  8  2  0
  8  9  1  0
  8 10  1  0
 10 11  1  0
 11 12  2  0
 12 13  1  0
 13 14  1  0
 13 15  2  0
 15 16  1  0
 15 17  1  0
 17 18  1  0
 17 19  2  0
 10 20  2  0
 20 21  1  0
 21 22  2  0
 22  2  1  0
 21  6  1  0
 19 11  1  0
M  CHG  1  20   1
M  END
