054_coconut
     RDKit          2D

 37 40  0  0  0  0  0  0  0  0999 V2000
   -6.0070    2.6148    0.0000 C   0  0  0  0  0  0  0  0  0  0  0  0
   -4.8467    3.5654    0.0000 C   0  0  0  0  0  0  0  0  0  0  0  0
   -3.6865    4.5161    0.0000 C   0  0  0  0  0  0  0  0  0  0  0  0
   -5.7974    4.7257    0.0000 O   0  0  0  0  0  0  0  0  0  0  0  0
   -3.8961    2.4052    0.0000 C   0  0  0  0  0  0  0  0  0  0  0  0
   -4.4256    1.0017    0.0000 C   0  0  0  0  0  0  0  0  0  0  0  0
   -3.4750   -0.1586    0.0000 C   0  0  0  0  0  0  0  0  0  0  0  0
   -1.9948    0.0846    0.0000 O   0  0  0  0  0  0  0  0  0  0  0  0
   -4.0045   -1.5620    0.0000 C   0  0  0  0  0  0  0  0  0  0  0  0
   -5.4079   -1.0325    0.0000 C   0  0  0  0  0  0  0  0  0  0  0  0
   -4.5340   -2.9654    0.0000 O   0  0  0  0  0  0  0  0  0  0  0  0
   -2.6010   -2.0915    0.0000 C   0  0  0  0  0  0  0  0  0  0  0  0
   -2.2045   -3.5381    0.0000 C   0  0  0  0  0  0  0  0  0  0  0  0
   -3.1418   -4.7093    0.0000 O   0  0  0  0  0  0  0  0  0  0  0  0
   -0.7061   -3.6081    0.0000 C   0  0  0  0  0  0  0  0  0  0  0  0
   -0.1766   -2.2046    0.0000 C   0  0  0  0  0  0  0  0  0  0  0  0
    0.8901   -3.2592    0.0000 C   0  0  0  0  0  0  0  0  0  0  0  0
    1.2206   -1.6591    0.0000 C   0  0  0  0  0  0  0  0  0  0  0  0
    2.3918   -2.5963    0.0000 C   0  0  0  0  0  0  0  0  0  0  0  0
    3.7890   -2.0508    0.0000 C   0  0  0  0  0  0  0  0  0  0  0  0
    4.0152   -0.5679    0.0000 C   0  0  0  0  0  0  0  0  0  0  0  0
    2.8441    0.3694    0.0000 C   0  0  0  0  0  0  0  0  0  0  0  0
    3.0702    1.8522    0.0000 C   0  0  0  0  0  0  0  0  0  0  0  0
    4.4675    2.3978    0.0000 C   0  0  0  0  0  0  0  0  0  0  0  0
    4.6936    3.8807    0.0000 O   0  0  0  0  0  0  0  0  0  0  0  0
    5.6386    1.4605    0.0000 C   0  0  0  0  0  0  0  0  0  0  0  0
    7.0359    2.0061    0.0000 O   0  0  0  0  0  0  0  0  0  0  0  0
    5.4124   -0.0223    0.0000 C   0  0  0  0  0  0  0  0  0  0  0  0
    5.7071   -1.4931    0.0000 C   0  0  0  0  0  0  0  0  0  0  0  0
    6.9120    0.0124    0.0000 C   0  0  0  0  0  0  0  0  0  0  0  0
    1.4468   -0.1762    0.0000 C   0  0  0  0  0  0  0  0  0  0  0  0
    1.6729    1.3067    0.0000 C   0  0  0  0  0  0  0  0  0  0  0  0
    0.2757    0.7611    0.0000 C   0  0  0  0  0  0  0  0  0  0  0  0
    0.5018    2.2439    0.0000 O   0  0  0  0  0  0  0  0  0  0  0  0
   -1.1216    0.2155    0.0000 C   0  0  0  0  0  0  0  0  0  0  0  0
   -1.3477   -1.2673    0.0000 C   0  0  0  0  0  0  0  0  0  0  0  0
   -2.6104   -0.4576    0.0000 C   0  0  0  0  0  0  0  0  0  0  0  0
  1  2  1  0
  2  3  1  0
  2  4  1  0
  2  5  1  0
  5  6  2  3
  6  7  1  0
  7  8  2  0
  7  9  1  0
  9 10  1  6
  9 11  1  0
 12  9  1  6
 12 13  1  0
 13 14  1  1
 13 15  1  0
 15 16  1  0
 16 17  1  1
 16 18  1  0
 18 19  1  1
 19 20  1  0
 20 21  2  0
 21 22  1  0
 22 23  1  6
 23 24  1  0
 24 25  1  6
 24 26  1  0
 26 27  2  0
 26 28  1  0
 28 29  1  0
 28 30  1  0
 22 31  1  0
 31 32  1  1
 31 33  1  0
 33 34  2  0
 33 35  1  0
 35 36  1  0
 36 37  1  6
 36 12  1  0
 36 16  1  0
 31 18  1  0
 28 21  1  0
M  END
