055_coconut
     RDKit          2D

 19 21  0  0  0  0  0  0  0  0999 V2000
   -6.5981   -0.4636    0.0000 O   0  0  0  0  0  0  0  0  0  0  0  0
   -5.5029    0.5613    0.0000 C   0  0  0  0  0  0  0  0  0  0  0  0
   -5.8430    2.0223    0.0000 O   0  0  0  0  0  0  0  0  0  0  0  0
   -4.0677    0.1253    0.0000 C   0  0  0  0  0  0  0  0  0  0  0  0
   -3.5768   -1.2921    0.0000 C   0  0  0  0  0  0  0  0  0  0  0  0
   -2.0771   -1.2632    0.0000 S   0  0  0  0  0  0  0  0  0  0  0  0
   -1.6411    0.1720    0.0000 C   0  0  0  0  0  0  0  0  0  0  0  0
   -0.2237    0.6629    0.0000 C   0  0  0  0  0  0  0  0  0  0  0  0
    0.9102   -0.3191    0.0000 C   0  0  0  0  0  0  0  0  0  0  0  0
    0.7821   -1.8137    0.0000 C   0  0  0  0  0  0  0  0  0  0  0  0
    2.1639   -2.3973    0.0000 N   0  0  0  0  0  0  0  0  0  0  0  0
    3.1460   -1.2634    0.0000 C   0  0  0  0  0  0  0  0  0  0  0  0
    4.6457   -1.2346    0.0000 C   0  0  0  0  0  0  0  0  0  0  0  0
    5.3705    0.0786    0.0000 C   0  0  0  0  0  0  0  0  0  0  0  0
    4.5957    1.3630    0.0000 C   0  0  0  0  0  0  0  0  0  0  0  0
    5.3205    2.6762    0.0000 O   0  0  0  0  0  0  0  0  0  0  0  0
    3.0960    1.3341    0.0000 C   0  0  0  0  0  0  0  0  0  0  0  0
    2.3711    0.0209    0.0000 C   0  0  0  0  0  0  0  0  0  0  0  0
   -2.8713    1.0302    0.0000 N   0  0  0  0  0  0  0  0  0  0  0  0
  1  2  2  0
  2  3  1  0
  2  4  1  0
  4  5  1  0
  5  6  1  0
  6  7  1  0
  7  8  1  0
  8  9  1  0
  9 10  2  0
 10 11  1  0
 11 12  1  0
 12 13  1  0
 13 14  2  0
 14 15  1  0
 15 16  1  0
 15 17  2  0
 17 18  1  0
  7 19  1  0
 19  4  1  0
 18  9  1  0
 18 12  2  0
M  END
