056_coconut
     RDKit          2D

 20 23  0  0  0  0  0  0  0  0999 V2000
   -5.8947   -2.3674    0.0000 O   0  0  0  0  0  0  0  0  0  0  0  0
   -4.8170   -1.3241    0.0000 C   0  0  0  0  0  0  0  0  0  0  0  0
   -5.1816    0.1309    0.0000 C   0  0  0  0  0  0  0  0  0  0  0  0
   -4.1038    1.1741    0.0000 C   0  0  0  0  0  0  0  0  0  0  0  0
   -2.6614    0.7624    0.0000 C   0  0  0  0  0  0  0  0  0  0  0  0
   -2.2968   -0.6926    0.0000 C   0  0  0  0  0  0  0  0  0  0  0  0
   -3.3746   -1.7359    0.0000 C   0  0  0  0  0  0  0  0  0  0  0  0
   -2.2497    2.2048    0.0000 O   0  0  0  0  0  0  0  0  0  0  0  0
   -1.2064    1.1270    0.0000 C   0  0  0  0  0  0  0  0  0  0  0  0
    0.2360    0.7153    0.0000 C   0  0  0  0  0  0  0  0  0  0  0  0
    0.7507   -0.6937    0.0000 O   0  0  0  0  0  0  0  0  0  0  0  0
    2.2497   -0.6395    0.0000 C   0  0  0  0  0  0  0  0  0  0  0  0
    3.2930   -1.7173    0.0000 C   0  0  0  0  0  0  0  0  0  0  0  0
    4.7480   -1.3527    0.0000 C   0  0  0  0  0  0  0  0  0  0  0  0
    5.7913   -2.4305    0.0000 O   0  0  0  0  0  0  0  0  0  0  0  0
    5.1597    0.0897    0.0000 C   0  0  0  0  0  0  0  0  0  0  0  0
    4.1165    1.1674    0.0000 C   0  0  0  0  0  0  0  0  0  0  0  0
    2.6615    0.8028    0.0000 C   0  0  0  0  0  0  0  0  0  0  0  0
    1.4169    1.6402    0.0000 C   0  0  0  0  0  0  0  0  0  0  0  0
    1.3628    3.1392    0.0000 O   0  0  0  0  0  0  0  0  0  0  0  0
  1  2  2  0
  2  3  1  0
  3  4  2  0
  4  5  1  0
  5  6  1  0
  6  7  2  0
  5  8  1  0
  8  9  1  0
  9 10  1  0
 10 11  1  0
 11 12  1  0
 12 13  1  0
 13 14  2  0
 14 15  1  0
 14 16  1  0
 16 17  2  0
 17 18  1  0
 18 19  1  0
 19 20  2  0
  7  2  1  0
 19 10  1  0
  9  5  1  0
 18 12  2  0
M  END
