057_coconut
     RDKit          2D

 25 28  0  0  0  0  0  0  0  0999 V2000
   -4.9417    1.4048    0.0000 C   0  0  0  0  0  0  0  0  0  0  0  0
   -3.7005    0.5625    0.0000 C   0  0  0  0  0  0  0  0  0  0  0  0
   -2.2896    1.0715    0.0000 C   0  0  0  0  0  0  0  0  0  0  0  0
   -1.3694   -0.1131    0.0000 C   0  0  0  0  0  0  0  0  0  0  0  0
   -2.8459    0.1515    0.0000 C   0  0  0  0  0  0  0  0  0  0  0  0
   -3.8133   -0.9948    0.0000 C   0  0  0  0  0  0  0  0  0  0  0  0
   -5.2898   -0.7302    0.0000 O   0  0  0  0  0  0  0  0  0  0  0  0
   -3.3042   -2.4058    0.0000 C   0  0  0  0  0  0  0  0  0  0  0  0
   -1.8278   -2.6704    0.0000 C   0  0  0  0  0  0  0  0  0  0  0  0
   -0.8604   -1.5241    0.0000 C   0  0  0  0  0  0  0  0  0  0  0  0
    0.6389   -1.4760    0.0000 C   0  0  0  0  0  0  0  0  0  0  0  0
    1.6778   -2.5579    0.0000 C   0  0  0  0  0  0  0  0  0  0  0  0
    3.1343   -2.1991    0.0000 C   0  0  0  0  0  0  0  0  0  0  0  0
    4.1732   -3.2811    0.0000 O   0  0  0  0  0  0  0  0  0  0  0  0
    3.5518   -0.7584    0.0000 C   0  0  0  0  0  0  0  0  0  0  0  0
    2.5129    0.3235    0.0000 C   0  0  0  0  0  0  0  0  0  0  0  0
    1.9066    1.6956    0.0000 C   0  0  0  0  0  0  0  0  0  0  0  0
    3.7588    1.1588    0.0000 C   0  0  0  0  0  0  0  0  0  0  0  0
    3.6584    2.6554    0.0000 O   0  0  0  0  0  0  0  0  0  0  0  0
    5.1051    0.4974    0.0000 O   0  0  0  0  0  0  0  0  0  0  0  0
    1.0564   -0.0352    0.0000 C   0  0  0  0  0  0  0  0  0  0  0  0
   -0.1848    0.8070    0.0000 C   0  0  0  0  0  0  0  0  0  0  0  0
   -0.2329    2.3063    0.0000 C   0  0  0  0  0  0  0  0  0  0  0  0
   -1.5553    3.0142    0.0000 O   0  0  0  0  0  0  0  0  0  0  0  0
    1.0414    3.0976    0.0000 O   0  0  0  0  0  0  0  0  0  0  0  0
  1  2  2  0
  2  3  1  0
  3  4  1  0
  4  5  1  0
  5  6  1  0
  6  7  1  0
  6  8  1  0
  8  9  1  0
  9 10  1  0
 10 11  1  0
 11 12  2  0
 12 13  1  0
 13 14  2  0
 13 15  1  0
 15 16  1  0
 16 17  1  0
 16 18  1  0
 18 19  2  0
 18 20  1  0
 16 21  1  0
 21 22  1  0
 22 23  1  0
 23 24  2  0
 23 25  1  0
  6  2  1  0
 21 11  1  0
 10  4  1  0
 22  4  1  0
M  END
