058_coconut
     RDKit          2D

 29 31  0  0  0  0  0  0  0  0999 V2000
    0.1568   -4.1093    0.0000 O   0  0  0  0  0  0  0  0  0  0  0  0
    1.1836   -3.0158    0.0000 C   0  0  0  0  0  0  0  0  0  0  0  0
    0.7499   -1.5798    0.0000 C   0  0  0  0  0  0  0  0  0  0  0  0
   -0.7105   -1.2374    0.0000 O   0  0  0  0  0  0  0  0  0  0  0  0
   -1.1441    0.1985    0.0000 C   0  0  0  0  0  0  0  0  0  0  0  0
   -2.6045    0.5410    0.0000 O   0  0  0  0  0  0  0  0  0  0  0  0
   -3.6313   -0.5526    0.0000 C   0  0  0  0  0  0  0  0  0  0  0  0
   -5.0916   -0.2102    0.0000 C   0  0  0  0  0  0  0  0  0  0  0  0
   -5.5253    1.2258    0.0000 C   0  0  0  0  0  0  0  0  0  0  0  0
   -6.9857    1.5682    0.0000 C   0  0  0  0  0  0  0  0  0  0  0  0
   -8.0124    0.4747    0.0000 C   0  0  0  0  0  0  0  0  0  0  0  0
   -9.4728    0.8171    0.0000 O   0  0  0  0  0  0  0  0  0  0  0  0
   -7.5788   -0.9613    0.0000 C   0  0  0  0  0  0  0  0  0  0  0  0
   -6.1184   -1.3037    0.0000 C   0  0  0  0  0  0  0  0  0  0  0  0
   -0.1174    1.2921    0.0000 C   0  0  0  0  0  0  0  0  0  0  0  0
   -0.5510    2.7280    0.0000 O   0  0  0  0  0  0  0  0  0  0  0  0
    1.3430    0.9496    0.0000 C   0  0  0  0  0  0  0  0  0  0  0  0
    2.3698    2.0432    0.0000 O   0  0  0  0  0  0  0  0  0  0  0  0
    1.7767   -0.4863    0.0000 C   0  0  0  0  0  0  0  0  0  0  0  0
    2.6753   -1.6873    0.0000 O   0  0  0  0  0  0  0  0  0  0  0  0
    3.1155    0.1901    0.0000 C   0  0  0  0  0  0  0  0  0  0  0  0
    3.3552    1.6708    0.0000 O   0  0  0  0  0  0  0  0  0  0  0  0
    4.8375    1.9004    0.0000 C   0  0  0  0  0  0  0  0  0  0  0  0
    5.5140    0.5616    0.0000 C   0  0  0  0  0  0  0  0  0  0  0  0
    6.4539   -0.6073    0.0000 O   0  0  0  0  0  0  0  0  0  0  0  0
    6.7747    1.3743    0.0000 C   0  0  0  0  0  0  0  0  0  0  0  0
    8.1089    0.6887    0.0000 O   0  0  0  0  0  0  0  0  0  0  0  0
    4.4497   -0.4954    0.0000 C   0  0  0  0  0  0  0  0  0  0  0  0
    4.6793   -1.9778    0.0000 O   0  0  0  0  0  0  0  0  0  0  0  0
  1  2  1  0
  3  2  1  1
  3  4  1  0
  4  5  1  0
  5  6  1  1
  6  7  1  0
  7  8  1  0
  8  9  1  0
  9 10  2  0
 10 11  1  0
 11 12  1  0
 11 13  2  0
 13 14  1  0
  5 15  1  0
 15 16  1  6
 15 17  1  0
 17 18  1  1
 17 19  1  0
 19 20  1  6
 19 21  1  0
 21 22  1  6
 22 23  1  0
 23 24  1  0
 24 25  1  0
 24 26  1  0
 26 27  1  0
 24 28  1  0
 28 29  1  1
 19  3  1  0
 28 21  1  0
 14  8  2  0
M  END
