
     RDKit          2D

 20 22  0  0  0  0  0  0  0  0999 V2000
    1.1625   -3.4308    0.0000 C   0  0  0  0  0  0  0  0  0  0  0  0
    1.1284   -1.9312    0.0000 C   0  0  0  0  0  0  0  0  0  0  0  0
    2.3215   -1.0220    0.0000 C   0  0  0  0  0  0  0  0  0  0  0  0
    3.7582   -1.4529    0.0000 O   0  0  0  0  0  0  0  0  0  0  0  0
    1.8255    0.3936    0.0000 C   0  0  0  0  0  0  0  0  0  0  0  0
    0.3259    0.3594    0.0000 C   0  0  0  0  0  0  0  0  0  0  0  0
   -0.4662    0.2699    0.0000 O   0  0  0  0  0  0  0  0  0  0  0  0
   -0.1050   -1.0774    0.0000 C   0  0  0  0  0  0  0  0  0  0  0  0
   -1.4969   -1.6363    0.0000 C   0  0  0  0  0  0  0  0  0  0  0  0
   -2.8018   -0.8965    0.0000 C   0  0  0  0  0  0  0  0  0  0  0  0
   -4.0345   -1.7512    0.0000 O   0  0  0  0  0  0  0  0  0  0  0  0
   -3.0370    0.5849    0.0000 O   0  0  0  0  0  0  0  0  0  0  0  0
   -2.0254    1.6925    0.0000 C   0  0  0  0  0  0  0  0  0  0  0  0
   -0.5287    1.5921    0.0000 C   0  0  0  0  0  0  0  0  0  0  0  0
    0.2111    2.8970    0.0000 C   0  0  0  0  0  0  0  0  0  0  0  0
   -0.3525    0.9033    0.0000 C   0  0  0  0  0  0  0  0  0  0  0  0
    1.5062    3.1243    0.0000 C   0  0  0  0  0  0  0  0  0  0  0  0
   -0.6575    0.7941    0.0000 C   0  0  0  0  0  0  0  0  0  0  0  0
    3.3950    0.7936    0.0000 O   0  0  0  0  0  0  0  0  0  0  0  0
   -0.1288   -0.2065    0.0000 C   0  0  0  0  0  0  0  0  0  0  0  0
  2  1  1  1
  2  3  1  0
  3  4  1  1
  3  5  1  0
  5  6  1  0
  6  7  1  6
  6  8  1  0
  8  9  1  1
  9 10  1  0
 10 11  2  0
 10 12  1  0
 12 13  1  0
 13 14  1  0
 14 15  1  6
 14 16  1  0
 16 17  1  6
 16 18  1  0
 18 19  2  0
 18 20  1  0
  8  2  1  0
 14  6  1  0
 20  8  1  0
M  END
