
     RDKit          2D

 20 22  0  0  0  0  0  0  0  0999 V2000
   -5.1962   -1.0500    0.0000 C   0  0  0  0  0  0  0  0  0  0  0  0
   -3.8971   -0.3000    0.0000 C   0  0  0  0  0  0  0  0  0  0  0  0
   -3.8971    1.2000    0.0000 C   0  0  0  0  0  0  0  0  0  0  0  0
   -2.5981    1.9500    0.0000 C   0  0  0  0  0  0  0  0  0  0  0  0
   -1.2990    1.2000    0.0000 C   0  0  0  0  0  0  0  0  0  0  0  0
    0.0000    1.9500    0.0000 C   0  0  0  0  0  0  0  0  0  0  0  0
    0.0000    3.4500    0.0000 O   0  0  0  0  0  0  0  0  0  0  0  0
    1.2990    1.2000    0.0000 C   0  0  0  0  0  0  0  0  0  0  0  0
    1.2990   -0.3000    0.0000 C   0  0  0  0  0  0  0  0  0  0  0  0
   -0.0000   -1.0500    0.0000 C   0  0  0  0  0  0  0  0  0  0  0  0
   -0.0000   -2.5500    0.0000 O   0  0  0  0  0  0  0  0  0  0  0  0
   -1.2990   -0.3000    0.0000 C   0  0  0  0  0  0  0  0  0  0  0  0
   -2.5981   -1.0500    0.0000 C   0  0  0  0  0  0  0  0  0  0  0  0
   -2.5981   -2.5500    0.0000 O   0  0  0  0  0  0  0  0  0  0  0  0
    2.5981   -1.0500    0.0000 C   0  0  0  0  0  0  0  0  0  0  0  0
    2.5981   -2.5500    0.0000 O   0  0  0  0  0  0  0  0  0  0  0  0
    3.8971   -0.3000    0.0000 C   0  0  0  0  0  0  0  0  0  0  0  0
    5.1962   -1.0500    0.0000 C   0  0  0  0  0  0  0  0  0  0  0  0
    3.8971    1.2000    0.0000 C   0  0  0  0  0  0  0  0  0  0  0  0
    2.5981    1.9500    0.0000 C   0  0  0  0  0  0  0  0  0  0  0  0
  1  2  1  0
  2  3  2  0
  3  4  1  0
  4  5  2  0
  5  6  1  0
  6  7  2  0
  6  8  1  0
  8  9  2  0
  9 10  1  0
 10 11  2  0
 10 12  1  0
 12 13  2  0
 13 14  1  0
  9 15  1  0
 15 16  1  0
 15 17  2  0
 17 18  1  0
 17 19  1  0
 19 20  2  0
 13  2  1  0
 12  5  1  0
 20  8  1  0
M  END
