
     RDKit          2D

 20 22  0  0  0  0  0  0  0  0999 V2000
   -2.0673   -3.0004    0.0000 C   0  0  0  0  0  0  0  0  0  0  0  0
   -2.2550   -1.5122    0.0000 C   0  0  0  0  0  0  0  0  0  0  0  0
   -3.6377   -0.9307    0.0000 C   0  0  0  0  0  0  0  0  0  0  0  0
   -3.8255    0.5575    0.0000 C   0  0  0  0  0  0  0  0  0  0  0  0
   -2.6306    1.4642    0.0000 C   0  0  0  0  0  0  0  0  0  0  0  0
   -2.8183    2.9524    0.0000 O   0  0  0  0  0  0  0  0  0  0  0  0
   -1.2479    0.8827    0.0000 C   0  0  0  0  0  0  0  0  0  0  0  0
   -1.4356    2.3709    0.0000 C   0  0  0  0  0  0  0  0  0  0  0  0
   -0.0529    1.7895    0.0000 C   0  0  0  0  0  0  0  0  0  0  0  0
    1.3298    1.2080    0.0000 C   0  0  0  0  0  0  0  0  0  0  0  0
    2.6871    1.8464    0.0000 O   0  0  0  0  0  0  0  0  0  0  0  0
    3.7138    0.7528    0.0000 C   0  0  0  0  0  0  0  0  0  0  0  0
    5.2020    0.9406    0.0000 O   0  0  0  0  0  0  0  0  0  0  0  0
    2.9909   -0.5615    0.0000 C   0  0  0  0  0  0  0  0  0  0  0  0
    3.6294   -1.9189    0.0000 C   0  0  0  0  0  0  0  0  0  0  0  0
    1.5175   -0.2802    0.0000 C   0  0  0  0  0  0  0  0  0  0  0  0
    0.3226   -1.1869    0.0000 C   0  0  0  0  0  0  0  0  0  0  0  0
   -1.0601   -0.6055    0.0000 C   0  0  0  0  0  0  0  0  0  0  0  0
   -0.8723   -2.0937    0.0000 O   0  0  0  0  0  0  0  0  0  0  0  0
    0.5104   -2.6751    0.0000 O   0  0  0  0  0  0  0  0  0  0  0  0
  1  2  2  0
  2  3  1  0
  3  4  1  0
  4  5  1  0
  5  6  1  0
  5  7  1  0
  7  8  1  0
  7  9  1  0
  9 10  1  0
 10 11  1  0
 11 12  1  0
 12 13  2  0
 12 14  1  0
 14 15  1  0
 14 16  1  0
 16 17  1  0
 17 18  1  0
 18 19  1  0
 19 20  1  0
 18  2  1  0
 18  7  1  0
 16 10  1  0
M  END
