
     RDKit          2D

 20 22  0  0  0  0  0  0  0  0999 V2000
   -4.2535    1.1115    0.0000 O   0  0  0  0  0  0  0  0  0  0  0  0
   -2.7884    1.4330    0.0000 C   0  0  0  0  0  0  0  0  0  0  0  0
   -2.3343    2.8626    0.0000 O   0  0  0  0  0  0  0  0  0  0  0  0
   -1.7774    0.3249    0.0000 C   0  0  0  0  0  0  0  0  0  0  0  0
   -2.0796   -1.1443    0.0000 C   0  0  0  0  0  0  0  0  0  0  0  0
   -3.4459   -1.7635    0.0000 C   0  0  0  0  0  0  0  0  0  0  0  0
   -3.5928   -3.2562    0.0000 O   0  0  0  0  0  0  0  0  0  0  0  0
   -0.7757   -1.8858    0.0000 O   0  0  0  0  0  0  0  0  0  0  0  0
    0.3324   -0.8748    0.0000 C   0  0  0  0  0  0  0  0  0  0  0  0
    0.9515   -2.2410    0.0000 O   0  0  0  0  0  0  0  0  0  0  0  0
    1.8232   -0.7081    0.0000 C   0  0  0  0  0  0  0  0  0  0  0  0
    2.9445   -1.7045    0.0000 C   0  0  0  0  0  0  0  0  0  0  0  0
    4.3680   -1.2316    0.0000 C   0  0  0  0  0  0  0  0  0  0  0  0
    4.6702    0.2377    0.0000 C   0  0  0  0  0  0  0  0  0  0  0  0
    3.5489    1.2340    0.0000 C   0  0  0  0  0  0  0  0  0  0  0  0
    2.1254    0.7611    0.0000 C   0  0  0  0  0  0  0  0  0  0  0  0
    0.8214    1.5025    0.0000 C   0  0  0  0  0  0  0  0  0  0  0  0
    0.6548    2.9932    0.0000 O   0  0  0  0  0  0  0  0  0  0  0  0
   -0.2867    0.4915    0.0000 C   0  0  0  0  0  0  0  0  0  0  0  0
   -0.9058    1.8578    0.0000 O   0  0  0  0  0  0  0  0  0  0  0  0
  1  2  2  0
  2  3  1  0
  2  4  1  0
  4  5  2  0
  5  6  1  0
  6  7  1  0
  5  8  1  0
  8  9  1  0
  9 10  1  6
  9 11  1  0
 11 12  2  0
 12 13  1  0
 13 14  2  0
 14 15  1  0
 15 16  2  0
 16 17  1  0
 17 18  2  0
 17 19  1  0
 19 20  1  6
 19  4  1  0
 19  9  1  0
 16 11  1  0
M  END
