
     RDKit          2D

 20 21  0  0  0  0  0  0  0  0999 V2000
   -0.9109    2.8809    0.0000 C   0  0  0  0  0  0  0  0  0  0  0  0
    0.0327    1.7149    0.0000 O   0  0  0  0  0  0  0  0  0  0  0  0
   -0.5053    0.3147    0.0000 C   0  0  0  0  0  0  0  0  0  0  0  0
    0.4383   -0.8513    0.0000 C   0  0  0  0  0  0  0  0  0  0  0  0
   -0.0997   -2.2515    0.0000 O   0  0  0  0  0  0  0  0  0  0  0  0
    1.9199   -0.6172    0.0000 C   0  0  0  0  0  0  0  0  0  0  0  0
    2.8635   -1.7832    0.0000 C   0  0  0  0  0  0  0  0  0  0  0  0
    4.3451   -1.5490    0.0000 C   0  0  0  0  0  0  0  0  0  0  0  0
    4.8831   -0.1488    0.0000 C   0  0  0  0  0  0  0  0  0  0  0  0
    6.3647    0.0853    0.0000 O   0  0  0  0  0  0  0  0  0  0  0  0
    3.9395    1.0172    0.0000 C   0  0  0  0  0  0  0  0  0  0  0  0
    2.4579    0.7830    0.0000 C   0  0  0  0  0  0  0  0  0  0  0  0
    1.5143    1.9490    0.0000 O   0  0  0  0  0  0  0  0  0  0  0  0
   -1.9869    0.0805    0.0000 C   0  0  0  0  0  0  0  0  0  0  0  0
   -2.9305    1.2465    0.0000 C   0  0  0  0  0  0  0  0  0  0  0  0
   -4.4121    1.0124    0.0000 C   0  0  0  0  0  0  0  0  0  0  0  0
   -4.9501   -0.3878    0.0000 C   0  0  0  0  0  0  0  0  0  0  0  0
   -6.4318   -0.6220    0.0000 O   0  0  0  0  0  0  0  0  0  0  0  0
   -4.0065   -1.5538    0.0000 C   0  0  0  0  0  0  0  0  0  0  0  0
   -2.5249   -1.3197    0.0000 C   0  0  0  0  0  0  0  0  0  0  0  0
  1  2  1  0
  3  2  1  1
  3  4  1  0
  4  5  2  0
  4  6  1  0
  6  7  2  0
  7  8  1  0
  8  9  2  0
  9 10  1  0
  9 11  1  0
 11 12  2  0
 12 13  1  0
  3 14  1  0
 14 15  2  0
 15 16  1  0
 16 17  2  0
 17 18  1  0
 17 19  1  0
 19 20  2  0
 12  6  1  0
 20 14  1  0
M  END
