
     RDKit          2D

 20 22  0  0  0  0  0  0  0  0999 V2000
   -0.0765   -2.9137    0.0000 O   0  0  0  0  0  0  0  0  0  0  0  0
    1.0360   -1.9076    0.0000 C   0  0  0  0  0  0  0  0  0  0  0  0
    2.5039   -2.2163    0.0000 N   0  0  0  0  0  0  0  0  0  0  0  0
    3.2511   -0.9157    0.0000 C   0  0  0  0  0  0  0  0  0  0  0  0
    4.7177   -0.6006    0.0000 C   0  0  0  0  0  0  0  0  0  0  0  0
    5.1782    0.8269    0.0000 C   0  0  0  0  0  0  0  0  0  0  0  0
    4.1721    1.9395    0.0000 C   0  0  0  0  0  0  0  0  0  0  0  0
    2.7055    1.6245    0.0000 C   0  0  0  0  0  0  0  0  0  0  0  0
    2.2451    0.1969    0.0000 C   0  0  0  0  0  0  0  0  0  0  0  0
    0.8761   -0.4161    0.0000 C   0  0  0  0  0  0  0  0  0  0  0  0
    0.4095    1.0094    0.0000 O   0  0  0  0  0  0  0  0  0  0  0  0
   -0.5905   -0.7312    0.0000 C   0  0  0  0  0  0  0  0  0  0  0  0
   -1.5966    0.3814    0.0000 C   0  0  0  0  0  0  0  0  0  0  0  0
   -1.1361    1.8090    0.0000 N   0  0  0  0  0  0  0  0  0  0  0  0
   -2.1422    2.9215    0.0000 O   0  0  0  0  0  0  0  0  0  0  0  0
   -3.0631    0.0664    0.0000 C   0  0  0  0  0  0  0  0  0  0  0  0
   -3.6703   -1.3052    0.0000 C   0  0  0  0  0  0  0  0  0  0  0  0
   -5.1624   -1.1517    0.0000 C   0  0  0  0  0  0  0  0  0  0  0  0
   -5.4774    0.3149    0.0000 C   0  0  0  0  0  0  0  0  0  0  0  0
   -4.1800    1.0677    0.0000 O   0  0  0  0  0  0  0  0  0  0  0  0
  1  2  2  0
  2  3  1  0
  3  4  1  0
  4  5  2  0
  5  6  1  0
  6  7  2  0
  7  8  1  0
  8  9  2  0
  9 10  1  0
 10 11  1  6
 10 12  1  0
 12 13  1  0
 13 14  2  3
 14 15  1  0
 13 16  1  0
 16 17  2  0
 17 18  1  0
 18 19  2  0
 19 20  1  0
 10  2  1  0
 20 16  1  0
  9  4  1  0
M  END
