
     RDKit          2D

 20 21  0  0  0  0  0  0  0  0999 V2000
    0.3523   -0.6492    0.0000 O   0  0  0  0  0  0  0  0  0  0  0  0
   -0.6856    0.4337    0.0000 C   0  0  0  0  0  0  0  0  0  0  0  0
   -0.2667    1.8740    0.0000 C   0  0  0  0  0  0  0  0  0  0  0  0
    1.1901    2.2314    0.0000 C   0  0  0  0  0  0  0  0  0  0  0  0
    2.2280    1.1485    0.0000 C   0  0  0  0  0  0  0  0  0  0  0  0
    1.8091   -0.2919    0.0000 C   0  0  0  0  0  0  0  0  0  0  0  0
    2.8470   -1.3748    0.0000 C   0  0  0  0  0  0  0  0  0  0  0  0
    2.4281   -2.8151    0.0000 O   0  0  0  0  0  0  0  0  0  0  0  0
    4.3038   -1.0174    0.0000 C   0  0  0  0  0  0  0  0  0  0  0  0
    4.7227    0.4229    0.0000 C   0  0  0  0  0  0  0  0  0  0  0  0
    6.1795    0.7803    0.0000 O   0  0  0  0  0  0  0  0  0  0  0  0
    3.6848    1.5058    0.0000 C   0  0  0  0  0  0  0  0  0  0  0  0
   -2.1424    0.0763    0.0000 C   0  0  0  0  0  0  0  0  0  0  0  0
   -3.1803    1.1593    0.0000 C   0  0  0  0  0  0  0  0  0  0  0  0
   -4.6371    0.8019    0.0000 C   0  0  0  0  0  0  0  0  0  0  0  0
   -5.6750    1.8849    0.0000 O   0  0  0  0  0  0  0  0  0  0  0  0
   -5.0560   -0.6384    0.0000 C   0  0  0  0  0  0  0  0  0  0  0  0
   -4.0181   -1.7213    0.0000 O   0  0  0  0  0  0  0  0  0  0  0  0
   -2.5613   -1.3640    0.0000 C   0  0  0  0  0  0  0  0  0  0  0  0
   -1.5234   -2.4469    0.0000 O   0  0  0  0  0  0  0  0  0  0  0  0
  1  2  2  0
  2  3  1  0
  3  4  2  0
  4  5  1  0
  5  6  2  0
  6  7  1  0
  7  8  1  0
  7  9  2  0
  9 10  1  0
 10 11  1  0
 10 12  2  0
 13  2  1  6
 13 14  1  0
 14 15  1  0
 15 16  1  0
 15 17  2  0
 17 18  1  0
 18 19  1  0
 19 20  2  0
 12  5  1  0
 19 13  1  0
M  END
