
     RDKit          2D

 20 23  0  0  0  0  0  0  0  0999 V2000
    1.3087   -1.6004    0.0000 C   0  0  0  0  0  0  0  0  0  0  0  0
    2.0338   -0.2873    0.0000 C   0  0  0  0  0  0  0  0  0  0  0  0
    2.8084   -1.5718    0.0000 C   0  0  0  0  0  0  0  0  0  0  0  0
    4.3082   -1.5431    0.0000 C   0  0  0  0  0  0  0  0  0  0  0  0
    5.0332   -0.2300    0.0000 C   0  0  0  0  0  0  0  0  0  0  0  0
    4.2586    1.0545    0.0000 C   0  0  0  0  0  0  0  0  0  0  0  0
    2.7588    1.0258    0.0000 C   0  0  0  0  0  0  0  0  0  0  0  0
    1.9842    2.3103    0.0000 C   0  0  0  0  0  0  0  0  0  0  0  0
    0.4845    2.2817    0.0000 C   0  0  0  0  0  0  0  0  0  0  0  0
   -0.2406    0.9686    0.0000 C   0  0  0  0  0  0  0  0  0  0  0  0
   -1.7403    0.9399    0.0000 C   0  0  0  0  0  0  0  0  0  0  0  0
   -2.7651    2.0353    0.0000 C   0  0  0  0  0  0  0  0  0  0  0  0
   -4.1235    1.3991    0.0000 C   0  0  0  0  0  0  0  0  0  0  0  0
   -3.9383   -0.0894    0.0000 C   0  0  0  0  0  0  0  0  0  0  0  0
   -5.0337   -1.1142    0.0000 O   0  0  0  0  0  0  0  0  0  0  0  0
   -2.4654   -0.3732    0.0000 C   0  0  0  0  0  0  0  0  0  0  0  0
   -3.3237   -1.6033    0.0000 C   0  0  0  0  0  0  0  0  0  0  0  0
   -1.6907   -1.6577    0.0000 C   0  0  0  0  0  0  0  0  0  0  0  0
   -0.1910   -1.6290    0.0000 C   0  0  0  0  0  0  0  0  0  0  0  0
    0.5341   -0.3159    0.0000 C   0  0  0  0  0  0  0  0  0  0  0  0
  2  1  1  1
  2  3  1  0
  3  4  1  0
  4  5  1  0
  5  6  1  0
  7  6  1  6
  7  8  1  0
  8  9  1  0
 10  9  1  6
 10 11  1  0
 11 12  1  6
 12 13  1  0
 13 14  1  0
 14 15  1  1
 14 16  1  0
 16 17  1  6
 16 18  1  0
 18 19  1  0
 20 19  1  1
  7  2  1  0
 20 10  1  0
 20  2  1  0
 16 11  1  0
M  END
