
     RDKit          2D

 20 21  0  0  0  0  0  0  0  0999 V2000
   -7.7670    2.9569    0.0000 C   0  0  0  0  0  0  0  0  0  0  0  0
   -6.9685    1.6871    0.0000 C   0  0  0  0  0  0  0  0  0  0  0  0
   -6.1701    0.4172    0.0000 C   0  0  0  0  0  0  0  0  0  0  0  0
   -4.6712    0.4738    0.0000 C   0  0  0  0  0  0  0  0  0  0  0  0
   -3.8727   -0.7961    0.0000 C   0  0  0  0  0  0  0  0  0  0  0  0
   -2.3738   -0.7395    0.0000 C   0  0  0  0  0  0  0  0  0  0  0  0
   -1.6733    0.5869    0.0000 C   0  0  0  0  0  0  0  0  0  0  0  0
   -0.1744    0.6434    0.0000 C   0  0  0  0  0  0  0  0  0  0  0  0
    0.6241   -0.6264    0.0000 C   0  0  0  0  0  0  0  0  0  0  0  0
    2.1230   -0.5699    0.0000 C   0  0  0  0  0  0  0  0  0  0  0  0
    2.8235    0.7565    0.0000 C   0  0  0  0  0  0  0  0  0  0  0  0
    4.3224    0.8130    0.0000 C   0  0  0  0  0  0  0  0  0  0  0  0
    5.0229    2.1394    0.0000 C   0  0  0  0  0  0  0  0  0  0  0  0
    6.5219    2.1960    0.0000 C   0  0  0  0  0  0  0  0  0  0  0  0
    8.0208    2.2525    0.0000 C   0  0  0  0  0  0  0  0  0  0  0  0
    2.9214   -1.8397    0.0000 C   0  0  0  0  0  0  0  0  0  0  0  0
    2.2209   -3.1661    0.0000 C   0  0  0  0  0  0  0  0  0  0  0  0
    0.7220   -3.2227    0.0000 C   0  0  0  0  0  0  0  0  0  0  0  0
   -0.0764   -1.9528    0.0000 C   0  0  0  0  0  0  0  0  0  0  0  0
   -1.5754   -2.0094    0.0000 N   0  0  0  0  0  0  0  0  0  0  0  0
  1  2  3  0
  2  3  1  0
  3  4  2  3
  4  5  1  0
  5  6  1  0
  6  7  1  0
  7  8  1  0
  8  9  1  0
  9 10  1  0
 10 11  1  0
 11 12  1  0
 12 13  2  3
 13 14  1  0
 14 15  3  0
 10 16  1  0
 16 17  1  0
 17 18  1  0
 18 19  1  0
 19 20  1  0
 20  6  1  0
 19  9  1  0
M  END
