
     RDKit          2D

 20 22  0  0  0  0  0  0  0  0999 V2000
   -0.4489    4.7225    0.0000 C   0  0  0  0  0  0  0  0  0  0  0  0
   -1.1147    3.3784    0.0000 O   0  0  0  0  0  0  0  0  0  0  0  0
   -0.2836    2.1297    0.0000 C   0  0  0  0  0  0  0  0  0  0  0  0
    1.2133    2.2251    0.0000 C   0  0  0  0  0  0  0  0  0  0  0  0
    2.0444    0.9764    0.0000 C   0  0  0  0  0  0  0  0  0  0  0  0
    1.3786   -0.3677    0.0000 C   0  0  0  0  0  0  0  0  0  0  0  0
    2.2097   -1.6164    0.0000 O   0  0  0  0  0  0  0  0  0  0  0  0
    3.7067   -1.5210    0.0000 C   0  0  0  0  0  0  0  0  0  0  0  0
    4.5378   -2.7697    0.0000 O   0  0  0  0  0  0  0  0  0  0  0  0
    4.3725   -0.1769    0.0000 C   0  0  0  0  0  0  0  0  0  0  0  0
    3.5414    1.0718    0.0000 C   0  0  0  0  0  0  0  0  0  0  0  0
   -0.1184   -0.4631    0.0000 C   0  0  0  0  0  0  0  0  0  0  0  0
   -0.9495    0.7856    0.0000 C   0  0  0  0  0  0  0  0  0  0  0  0
   -2.4464    0.6902    0.0000 O   0  0  0  0  0  0  0  0  0  0  0  0
   -3.1123   -0.6540    0.0000 C   0  0  0  0  0  0  0  0  0  0  0  0
   -4.1977   -1.6893    0.0000 C   0  0  0  0  0  0  0  0  0  0  0  0
   -4.3204    0.2352    0.0000 C   0  0  0  0  0  0  0  0  0  0  0  0
   -2.2812   -1.9027    0.0000 C   0  0  0  0  0  0  0  0  0  0  0  0
   -2.9470   -3.2468    0.0000 O   0  0  0  0  0  0  0  0  0  0  0  0
   -0.7842   -1.8072    0.0000 C   0  0  0  0  0  0  0  0  0  0  0  0
  1  2  1  0
  2  3  1  0
  3  4  2  0
  4  5  1  0
  5  6  2  0
  6  7  1  0
  7  8  1  0
  8  9  2  0
  8 10  1  0
 10 11  2  0
  6 12  1  0
 12 13  2  0
 13 14  1  0
 14 15  1  0
 15 16  1  0
 15 17  1  0
 15 18  1  0
 18 19  1  1
 18 20  1  0
 13  3  1  0
 11  5  1  0
 20 12  1  0
M  END
