
     RDKit          2D

 20 20  0  0  0  0  0  0  0  0999 V2000
   -9.0770    1.2176    0.0000 C   0  0  0  0  0  0  0  0  0  0  0  0
   -7.8855    0.3064    0.0000 C   0  0  0  0  0  0  0  0  0  0  0  0
   -8.0788   -1.1810    0.0000 O   0  0  0  0  0  0  0  0  0  0  0  0
   -6.5006    0.8827    0.0000 C   0  0  0  0  0  0  0  0  0  0  0  0
   -5.3091   -0.0284    0.0000 C   0  0  0  0  0  0  0  0  0  0  0  0
   -3.9242    0.5479    0.0000 C   0  0  0  0  0  0  0  0  0  0  0  0
   -2.7327   -0.3633    0.0000 C   0  0  0  0  0  0  0  0  0  0  0  0
   -2.9260   -1.8508    0.0000 O   0  0  0  0  0  0  0  0  0  0  0  0
   -1.3478    0.2130    0.0000 C   0  0  0  0  0  0  0  0  0  0  0  0
   -0.1562   -0.6982    0.0000 C   0  0  0  0  0  0  0  0  0  0  0  0
    1.2286   -0.1219    0.0000 C   0  0  0  0  0  0  0  0  0  0  0  0
    2.4202   -1.0331    0.0000 C   0  0  0  0  0  0  0  0  0  0  0  0
    3.8050   -0.4568    0.0000 C   0  0  0  0  0  0  0  0  0  0  0  0
    3.9984    1.0307    0.0000 C   0  0  0  0  0  0  0  0  0  0  0  0
    5.3832    1.6070    0.0000 C   0  0  0  0  0  0  0  0  0  0  0  0
    5.5766    3.0945    0.0000 O   0  0  0  0  0  0  0  0  0  0  0  0
    6.5748    0.6959    0.0000 C   0  0  0  0  0  0  0  0  0  0  0  0
    6.3814   -0.7916    0.0000 C   0  0  0  0  0  0  0  0  0  0  0  0
    7.5730   -1.7028    0.0000 O   0  0  0  0  0  0  0  0  0  0  0  0
    4.9966   -1.3679    0.0000 C   0  0  0  0  0  0  0  0  0  0  0  0
  1  2  1  0
  2  3  1  0
  2  4  1  0
  4  5  1  0
  5  6  1  0
  6  7  1  0
  7  8  2  0
  7  9  1  0
  9 10  1  0
 10 11  1  0
 11 12  2  3
 12 13  1  0
 13 14  2  0
 14 15  1  0
 15 16  1  0
 15 17  2  0
 17 18  1  0
 18 19  1  0
 18 20  2  0
 20 13  1  0
M  END
