
     RDKit          2D

 20 20  0  0  0  0  0  0  0  0999 V2000
   -8.0534   -0.1008    0.0000 C   0  0  0  0  0  0  0  0  0  0  0  0
   -6.5908    0.2321    0.0000 C   0  0  0  0  0  0  0  0  0  0  0  0
   -5.5712   -0.8682    0.0000 O   0  0  0  0  0  0  0  0  0  0  0  0
   -4.1086   -0.5353    0.0000 C   0  0  0  0  0  0  0  0  0  0  0  0
   -3.6656    0.8977    0.0000 C   0  0  0  0  0  0  0  0  0  0  0  0
   -2.2030    1.2306    0.0000 C   0  0  0  0  0  0  0  0  0  0  0  0
   -1.1834    0.1304    0.0000 C   0  0  0  0  0  0  0  0  0  0  0  0
    0.2792    0.4632    0.0000 C   0  0  0  0  0  0  0  0  0  0  0  0
    0.7222    1.8963    0.0000 O   0  0  0  0  0  0  0  0  0  0  0  0
    1.2987   -0.6370    0.0000 N   0  0  0  0  0  0  0  0  0  0  0  0
    2.7613   -0.3042    0.0000 C   0  0  0  0  0  0  0  0  0  0  0  0
    3.7809   -1.4044    0.0000 C   0  0  0  0  0  0  0  0  0  0  0  0
    5.2435   -1.0716    0.0000 C   0  0  0  0  0  0  0  0  0  0  0  0
    6.2631   -2.1718    0.0000 C   0  0  0  0  0  0  0  0  0  0  0  0
    5.6865    0.3615    0.0000 C   0  0  0  0  0  0  0  0  0  0  0  0
    3.2044    1.1289    0.0000 C   0  0  0  0  0  0  0  0  0  0  0  0
    2.1848    2.2291    0.0000 O   0  0  0  0  0  0  0  0  0  0  0  0
    4.6670    1.4617    0.0000 O   0  0  0  0  0  0  0  0  0  0  0  0
   -1.6265   -1.3027    0.0000 C   0  0  0  0  0  0  0  0  0  0  0  0
   -3.0891   -1.6356    0.0000 C   0  0  0  0  0  0  0  0  0  0  0  0
  1  2  1  0
  2  3  1  0
  3  4  1  0
  4  5  2  0
  5  6  1  0
  6  7  2  0
  7  8  1  0
  8  9  2  0
  8 10  1  0
 10 11  1  0
 11 12  1  6
 12 13  1  0
 13 14  1  0
 13 15  1  0
 11 16  1  0
 16 17  2  0
 16 18  1  0
  7 19  1  0
 19 20  2  0
 20  4  1  0
M  END
