
     RDKit          2D

 20 20  0  0  0  0  0  0  0  0999 V2000
   -2.4302   -3.0604    0.0000 C   0  0  0  0  0  0  0  0  0  0  0  0
   -1.6327   -1.7900    0.0000 C   0  0  0  0  0  0  0  0  0  0  0  0
   -2.3342   -0.4641    0.0000 C   0  0  0  0  0  0  0  0  0  0  0  0
   -3.6601   -1.1656    0.0000 C   0  0  0  0  0  0  0  0  0  0  0  0
   -1.0084    0.2374    0.0000 C   0  0  0  0  0  0  0  0  0  0  0  0
    0.2621   -0.5601    0.0000 C   0  0  0  0  0  0  0  0  0  0  0  0
    1.5879    0.1414    0.0000 C   0  0  0  0  0  0  0  0  0  0  0  0
    1.6434    1.6404    0.0000 C   0  0  0  0  0  0  0  0  0  0  0  0
    0.3729    2.4378    0.0000 C   0  0  0  0  0  0  0  0  0  0  0  0
    2.9692    2.3419    0.0000 C   0  0  0  0  0  0  0  0  0  0  0  0
    4.2397    1.5444    0.0000 C   0  0  0  0  0  0  0  0  0  0  0  0
    4.1842    0.0454    0.0000 C   0  0  0  0  0  0  0  0  0  0  0  0
    5.4547   -0.7521    0.0000 Br  0  0  0  0  0  0  0  0  0  0  0  0
    2.8584   -0.6561    0.0000 C   0  0  0  0  0  0  0  0  0  0  0  0
    3.7795   -1.8400    0.0000 C   0  0  0  0  0  0  0  0  0  0  0  0
    1.8524   -1.7688    0.0000 C   0  0  0  0  0  0  0  0  0  0  0  0
   -3.0357    0.8617    0.0000 O   0  0  0  0  0  0  0  0  0  0  0  0
   -4.5347    0.9171    0.0000 C   0  0  0  0  0  0  0  0  0  0  0  0
   -5.2362    2.2430    0.0000 C   0  0  0  0  0  0  0  0  0  0  0  0
   -5.3322   -0.3533    0.0000 O   0  0  0  0  0  0  0  0  0  0  0  0
  1  2  2  0
  2  3  1  0
  3  4  1  6
  3  5  1  0
  5  6  1  0
  7  6  1  6
  7  8  1  0
  8  9  1  0
  8 10  2  0
 10 11  1  0
 11 12  1  0
 12 13  1  1
 12 14  1  0
 14 15  1  0
 14 16  1  0
  3 17  1  0
 17 18  1  0
 18 19  1  0
 18 20  2  0
 14  7  1  0
M  END
