
     RDKit          2D

 20 22  0  0  0  0  0  0  0  0999 V2000
    1.0687   -3.2040    0.0000 O   0  0  0  0  0  0  0  0  0  0  0  0
    0.5397   -1.8003    0.0000 C   0  0  0  0  0  0  0  0  0  0  0  0
   -0.9404   -1.5567    0.0000 C   0  0  0  0  0  0  0  0  0  0  0  0
   -1.4694   -0.1530    0.0000 C   0  0  0  0  0  0  0  0  0  0  0  0
   -2.9495    0.0906    0.0000 C   0  0  0  0  0  0  0  0  0  0  0  0
   -3.4785    1.4943    0.0000 C   0  0  0  0  0  0  0  0  0  0  0  0
   -4.9585    1.7379    0.0000 C   0  0  0  0  0  0  0  0  0  0  0  0
   -5.9096    0.5780    0.0000 C   0  0  0  0  0  0  0  0  0  0  0  0
   -5.3806   -0.8256    0.0000 C   0  0  0  0  0  0  0  0  0  0  0  0
   -3.9005   -1.0693    0.0000 C   0  0  0  0  0  0  0  0  0  0  0  0
   -0.5183    1.0069    0.0000 O   0  0  0  0  0  0  0  0  0  0  0  0
    0.9618    0.7632    0.0000 C   0  0  0  0  0  0  0  0  0  0  0  0
    1.9128    1.9232    0.0000 C   0  0  0  0  0  0  0  0  0  0  0  0
    3.3929    1.6795    0.0000 C   0  0  0  0  0  0  0  0  0  0  0  0
    4.3440    2.8394    0.0000 O   0  0  0  0  0  0  0  0  0  0  0  0
    3.9219    0.2759    0.0000 C   0  0  0  0  0  0  0  0  0  0  0  0
    5.4020    0.0322    0.0000 O   0  0  0  0  0  0  0  0  0  0  0  0
    2.9708   -0.8841    0.0000 C   0  0  0  0  0  0  0  0  0  0  0  0
    3.4999   -2.2877    0.0000 O   0  0  0  0  0  0  0  0  0  0  0  0
    1.4908   -0.6404    0.0000 C   0  0  0  0  0  0  0  0  0  0  0  0
  1  2  2  0
  2  3  1  0
  3  4  2  0
  4  5  1  0
  5  6  2  0
  6  7  1  0
  7  8  2  0
  8  9  1  0
  9 10  2  0
  4 11  1  0
 11 12  1  0
 12 13  2  0
 13 14  1  0
 14 15  1  0
 14 16  2  0
 16 17  1  0
 16 18  1  0
 18 19  1  0
 18 20  2  0
 20  2  1  0
 10  5  1  0
 20 12  1  0
M  END
