
     RDKit          2D

 20 19  0  0  0  0  0  0  0  0999 V2000
  -11.2427   -0.4256    0.0000 C   0  0  0  0  0  0  0  0  0  0  0  0
   -9.9346    0.3085    0.0000 C   0  0  0  0  0  0  0  0  0  0  0  0
   -8.6448   -0.4573    0.0000 C   0  0  0  0  0  0  0  0  0  0  0  0
   -7.3367    0.2769    0.0000 C   0  0  0  0  0  0  0  0  0  0  0  0
   -6.0469   -0.4889    0.0000 C   0  0  0  0  0  0  0  0  0  0  0  0
   -4.7389    0.2452    0.0000 C   0  0  0  0  0  0  0  0  0  0  0  0
   -4.7206    1.7451    0.0000 O   0  0  0  0  0  0  0  0  0  0  0  0
   -3.4490   -0.5205    0.0000 C   0  0  0  0  0  0  0  0  0  0  0  0
   -2.1410    0.2136    0.0000 C   0  0  0  0  0  0  0  0  0  0  0  0
   -0.8512   -0.5522    0.0000 C   0  0  0  0  0  0  0  0  0  0  0  0
    0.4569    0.1819    0.0000 C   0  0  0  0  0  0  0  0  0  0  0  0
    1.7467   -0.5838    0.0000 C   0  0  0  0  0  0  0  0  0  0  0  0
    3.0548    0.1503    0.0000 C   0  0  0  0  0  0  0  0  0  0  0  0
    4.3446   -0.6154    0.0000 C   0  0  0  0  0  0  0  0  0  0  0  0
    5.6527    0.1187    0.0000 C   0  0  0  0  0  0  0  0  0  0  0  0
    6.9425   -0.6471    0.0000 C   0  0  0  0  0  0  0  0  0  0  0  0
    8.2506    0.0870    0.0000 C   0  0  0  0  0  0  0  0  0  0  0  0
    8.2688    1.5869    0.0000 O   0  0  0  0  0  0  0  0  0  0  0  0
    9.5404   -0.6787    0.0000 O   0  0  0  0  0  0  0  0  0  0  0  0
   10.8484    0.0554    0.0000 C   0  0  0  0  0  0  0  0  0  0  0  0
  1  2  1  0
  2  3  1  0
  3  4  1  0
  4  5  1  0
  5  6  1  0
  6  7  2  0
  6  8  1  0
  8  9  1  0
  9 10  1  0
 10 11  1  0
 11 12  1  0
 12 13  1  0
 13 14  1  0
 14 15  1  0
 15 16  1  0
 16 17  1  0
 17 18  2  0
 17 19  1  0
 19 20  1  0
M  END
