
     RDKit          2D

 20 21  0  0  0  0  0  0  0  0999 V2000
   -7.4775    0.6570    0.0000 C   0  0  0  0  0  0  0  0  0  0  0  0
   -6.2317   -0.1785    0.0000 C   0  0  0  0  0  0  0  0  0  0  0  0
   -4.8853    0.4826    0.0000 O   0  0  0  0  0  0  0  0  0  0  0  0
   -3.6395   -0.3528    0.0000 C   0  0  0  0  0  0  0  0  0  0  0  0
   -3.7402   -1.8495    0.0000 O   0  0  0  0  0  0  0  0  0  0  0  0
   -2.2931    0.3083    0.0000 C   0  0  0  0  0  0  0  0  0  0  0  0
   -0.9668   -0.3924    0.0000 C   0  0  0  0  0  0  0  0  0  0  0  0
   -0.7541   -1.8772    0.0000 N   0  0  0  0  0  0  0  0  0  0  0  0
    0.1094    0.6525    0.0000 N   0  0  0  0  0  0  0  0  0  0  0  0
    1.5873    0.3959    0.0000 C   0  0  0  0  0  0  0  0  0  0  0  0
    2.6636    1.4408    0.0000 O   0  0  0  0  0  0  0  0  0  0  0  0
    3.9899    0.7401    0.0000 C   0  0  0  0  0  0  0  0  0  0  0  0
    5.3363    1.4013    0.0000 C   0  0  0  0  0  0  0  0  0  0  0  0
    6.5821    0.5658    0.0000 O   0  0  0  0  0  0  0  0  0  0  0  0
    3.7333   -0.7378    0.0000 C   0  0  0  0  0  0  0  0  0  0  0  0
    4.7782   -1.8140    0.0000 O   0  0  0  0  0  0  0  0  0  0  0  0
    2.2485   -0.9505    0.0000 C   0  0  0  0  0  0  0  0  0  0  0  0
    1.5478   -2.2768    0.0000 O   0  0  0  0  0  0  0  0  0  0  0  0
   -0.5517    1.9989    0.0000 C   0  0  0  0  0  0  0  0  0  0  0  0
   -2.0365    1.7862    0.0000 N   0  0  0  0  0  0  0  0  0  0  0  0
  1  2  1  0
  2  3  1  0
  3  4  1  0
  4  5  2  0
  4  6  1  0
  6  7  2  0
  7  8  1  0
  7  9  1  0
 10  9  1  6
 10 11  1  0
 11 12  1  0
 12 13  1  6
 13 14  1  0
 12 15  1  0
 15 16  1  1
 15 17  1  0
 17 18  1  6
  9 19  1  0
 19 20  2  0
 20  6  1  0
 17 10  1  0
M  END
