
     RDKit          2D

 20 23  0  0  0  0  0  0  0  0999 V2000
   -2.5879    2.8906    0.0000 C   0  0  0  0  0  0  0  0  0  0  0  0
   -1.2300    2.2534    0.0000 C   0  0  0  0  0  0  0  0  0  0  0  0
    0.0008    3.1109    0.0000 C   0  0  0  0  0  0  0  0  0  0  0  0
    1.3587    2.4737    0.0000 C   0  0  0  0  0  0  0  0  0  0  0  0
    1.4859    0.9791    0.0000 C   0  0  0  0  0  0  0  0  0  0  0  0
    2.8438    0.3419    0.0000 C   0  0  0  0  0  0  0  0  0  0  0  0
    4.0746    1.1993    0.0000 C   0  0  0  0  0  0  0  0  0  0  0  0
    2.9710   -1.1527    0.0000 C   0  0  0  0  0  0  0  0  0  0  0  0
    4.3289   -1.7899    0.0000 O   0  0  0  0  0  0  0  0  0  0  0  0
    1.7402   -2.0101    0.0000 O   0  0  0  0  0  0  0  0  0  0  0  0
    0.3822   -1.3729    0.0000 C   0  0  0  0  0  0  0  0  0  0  0  0
   -0.7070   -2.4042    0.0000 O   0  0  0  0  0  0  0  0  0  0  0  0
   -2.1924   -2.1956    0.0000 C   0  0  0  0  0  0  0  0  0  0  0  0
   -2.9555   -0.9042    0.0000 C   0  0  0  0  0  0  0  0  0  0  0  0
   -4.4501   -1.0313    0.0000 C   0  0  0  0  0  0  0  0  0  0  0  0
   -1.5150   -0.4857    0.0000 C   0  0  0  0  0  0  0  0  0  0  0  0
   -1.1028    0.7588    0.0000 C   0  0  0  0  0  0  0  0  0  0  0  0
    0.2551    0.1217    0.0000 C   0  0  0  0  0  0  0  0  0  0  0  0
   -1.2316   -0.3534    0.0000 O   0  0  0  0  0  0  0  0  0  0  0  0
   -1.4688   -0.4292    0.0000 O   0  0  0  0  0  0  0  0  0  0  0  0
  1  2  1  0
  2  3  1  0
  3  4  1  0
  4  5  1  0
  5  6  1  0
  6  7  1  0
  6  8  1  0
  8  9  1  0
  8 10  1  0
 10 11  1  0
 11 12  1  0
 12 13  1  0
 13 14  1  0
 14 15  1  0
 14 16  1  0
 16 17  1  0
 17 18  1  0
 18 19  1  0
 19 20  1  0
 17  2  1  0
 18  5  1  0
 18 11  1  0
 20 14  1  0
M  END
