
     RDKit          2D

 20 22  0  0  0  0  0  0  0  0999 V2000
    5.7924   -1.0557    0.0000 C   0  0  0  0  0  0  0  0  0  0  0  0
    4.3198   -0.7705    0.0000 C   0  0  0  0  0  0  0  0  0  0  0  0
    3.3365   -1.9032    0.0000 C   0  0  0  0  0  0  0  0  0  0  0  0
    1.8639   -1.6180    0.0000 C   0  0  0  0  0  0  0  0  0  0  0  0
    0.8805   -2.7507    0.0000 C   0  0  0  0  0  0  0  0  0  0  0  0
    1.3745   -0.2001    0.0000 C   0  0  0  0  0  0  0  0  0  0  0  0
   -0.0981    0.0852    0.0000 C   0  0  0  0  0  0  0  0  0  0  0  0
   -1.0814   -1.0476    0.0000 C   0  0  0  0  0  0  0  0  0  0  0  0
   -2.5540   -0.7624    0.0000 N   0  0  0  0  0  0  0  0  0  0  0  0
   -3.0434    0.6556    0.0000 C   0  0  0  0  0  0  0  0  0  0  0  0
   -4.5160    0.9408    0.0000 C   0  0  0  0  0  0  0  0  0  0  0  0
   -5.4993   -0.1919    0.0000 O   0  0  0  0  0  0  0  0  0  0  0  0
   -5.0100   -1.6099    0.0000 C   0  0  0  0  0  0  0  0  0  0  0  0
   -3.5374   -1.8951    0.0000 C   0  0  0  0  0  0  0  0  0  0  0  0
   -0.5874    1.5031    0.0000 C   0  0  0  0  0  0  0  0  0  0  0  0
    0.3959    2.6358    0.0000 C   0  0  0  0  0  0  0  0  0  0  0  0
   -0.0934    4.0538    0.0000 O   0  0  0  0  0  0  0  0  0  0  0  0
    1.8685    2.3506    0.0000 O   0  0  0  0  0  0  0  0  0  0  0  0
    2.3579    0.9327    0.0000 C   0  0  0  0  0  0  0  0  0  0  0  0
    3.8305    0.6475    0.0000 C   0  0  0  0  0  0  0  0  0  0  0  0
  1  2  1  0
  2  3  2  0
  3  4  1  0
  4  5  1  0
  4  6  2  0
  6  7  1  0
  7  8  1  0
  8  9  1  0
  9 10  1  0
 10 11  1  0
 11 12  1  0
 12 13  1  0
 13 14  1  0
  7 15  2  0
 15 16  1  0
 16 17  2  0
 16 18  1  0
 18 19  1  0
 19 20  2  0
 20  2  1  0
 19  6  1  0
 14  9  1  0
M  END
