
     RDKit          2D

 20 22  0  0  0  0  0  0  0  0999 V2000
    0.3542   -2.6032    0.0000 O   0  0  0  0  0  0  0  0  0  0  0  0
    0.4122   -1.1043    0.0000 C   0  0  0  0  0  0  0  0  0  0  0  0
    1.7393   -0.4051    0.0000 C   0  0  0  0  0  0  0  0  0  0  0  0
    3.0084   -1.2048    0.0000 C   0  0  0  0  0  0  0  0  0  0  0  0
    2.9503   -2.7037    0.0000 O   0  0  0  0  0  0  0  0  0  0  0  0
    4.3355   -0.5056    0.0000 C   0  0  0  0  0  0  0  0  0  0  0  0
    4.3935    0.9933    0.0000 C   0  0  0  0  0  0  0  0  0  0  0  0
    3.1244    1.7930    0.0000 C   0  0  0  0  0  0  0  0  0  0  0  0
    1.7974    1.0938    0.0000 C   0  0  0  0  0  0  0  0  0  0  0  0
    0.5283    1.8935    0.0000 C   0  0  0  0  0  0  0  0  0  0  0  0
    0.5864    3.3924    0.0000 O   0  0  0  0  0  0  0  0  0  0  0  0
   -0.7988    1.1943    0.0000 C   0  0  0  0  0  0  0  0  0  0  0  0
   -2.0678    1.9940    0.0000 C   0  0  0  0  0  0  0  0  0  0  0  0
   -3.3949    1.2948    0.0000 C   0  0  0  0  0  0  0  0  0  0  0  0
   -4.6639    2.0945    0.0000 O   0  0  0  0  0  0  0  0  0  0  0  0
   -3.4529   -0.2041    0.0000 C   0  0  0  0  0  0  0  0  0  0  0  0
   -2.1839   -1.0038    0.0000 C   0  0  0  0  0  0  0  0  0  0  0  0
   -2.2419   -2.5026    0.0000 C   0  0  0  0  0  0  0  0  0  0  0  0
   -3.5690   -3.2018    0.0000 O   0  0  0  0  0  0  0  0  0  0  0  0
   -0.8568   -0.3046    0.0000 C   0  0  0  0  0  0  0  0  0  0  0  0
  1  2  2  0
  2  3  1  0
  3  4  2  0
  4  5  1  0
  4  6  1  0
  6  7  2  0
  7  8  1  0
  8  9  2  0
  9 10  1  0
 10 11  2  0
 10 12  1  0
 12 13  1  1
 13 14  2  0
 14 15  1  0
 14 16  1  0
 16 17  2  0
 17 18  1  0
 18 19  1  0
 20 17  1  1
 20  2  1  0
  9  3  1  0
 20 12  1  0
M  END
