
     RDKit          2D

 21 23  0  0  0  0  0  0  0  0999 V2000
   -6.0635    2.5577    0.0000 C   0  0  0  0  0  0  0  0  0  0  0  0
   -5.1352    1.3794    0.0000 C   0  0  0  0  0  0  0  0  0  0  0  0
   -5.5429   -0.0641    0.0000 N   0  0  0  0  0  0  0  0  0  0  0  0
   -4.2959   -0.8979    0.0000 N   0  0  0  0  0  0  0  0  0  0  0  0
   -4.2375   -2.3967    0.0000 C   0  0  0  0  0  0  0  0  0  0  0  0
   -3.1177    0.0304    0.0000 C   0  0  0  0  0  0  0  0  0  0  0  0
   -1.6741   -0.3773    0.0000 C   0  0  0  0  0  0  0  0  0  0  0  0
   -1.3054   -1.8312    0.0000 C   0  0  0  0  0  0  0  0  0  0  0  0
    0.1382   -2.2389    0.0000 C   0  0  0  0  0  0  0  0  0  0  0  0
    1.2130   -1.1925    0.0000 C   0  0  0  0  0  0  0  0  0  0  0  0
    2.6565   -1.6002    0.0000 O   0  0  0  0  0  0  0  0  0  0  0  0
    0.8442    0.2614    0.0000 C   0  0  0  0  0  0  0  0  0  0  0  0
    1.9190    1.3078    0.0000 N   0  0  0  0  0  0  0  0  0  0  0  0
    3.3626    0.9001    0.0000 C   0  0  0  0  0  0  0  0  0  0  0  0
    3.7313   -0.5538    0.0000 C   0  0  0  0  0  0  0  0  0  0  0  0
    5.1749   -0.9615    0.0000 C   0  0  0  0  0  0  0  0  0  0  0  0
    6.2497    0.0849    0.0000 O   0  0  0  0  0  0  0  0  0  0  0  0
    5.8809    1.5388    0.0000 C   0  0  0  0  0  0  0  0  0  0  0  0
    4.4374    1.9465    0.0000 C   0  0  0  0  0  0  0  0  0  0  0  0
   -0.5993    0.6691    0.0000 C   0  0  0  0  0  0  0  0  0  0  0  0
   -3.6364    1.4378    0.0000 N   0  0  0  0  0  0  0  0  0  0  0  0
  1  2  1  0
  2  3  2  0
  3  4  1  0
  4  5  1  0
  4  6  1  0
  7  6  1  6
  7  8  1  0
  8  9  1  0
  9 10  1  0
 10 11  1  6
 10 12  1  0
 12 13  1  1
 13 14  1  0
 14 15  1  0
 15 16  1  0
 16 17  1  0
 17 18  1  0
 18 19  1  0
 12 20  1  0
  6 21  2  0
 21  2  1  0
 20  7  1  0
 19 14  1  0
M  END
