
     RDKit          2D

 21 24  0  0  0  0  0  0  0  0999 V2000
   -7.1841    0.9693    0.0000 C   0  0  0  0  0  0  0  0  0  0  0  0
   -6.3861   -0.3008    0.0000 O   0  0  0  0  0  0  0  0  0  0  0  0
   -4.8871   -0.2447    0.0000 C   0  0  0  0  0  0  0  0  0  0  0  0
   -4.1862    1.0815    0.0000 C   0  0  0  0  0  0  0  0  0  0  0  0
   -2.6873    1.1375    0.0000 C   0  0  0  0  0  0  0  0  0  0  0  0
   -1.8892   -0.1326    0.0000 C   0  0  0  0  0  0  0  0  0  0  0  0
   -0.3903   -0.0765    0.0000 C   0  0  0  0  0  0  0  0  0  0  0  0
    0.4078   -1.3466    0.0000 N   0  0  0  0  0  0  0  0  0  0  0  0
    1.9067   -1.2905    0.0000 C   0  0  0  0  0  0  0  0  0  0  0  0
    2.7047   -2.5606    0.0000 C   0  0  0  0  0  0  0  0  0  0  0  0
    4.2037   -2.5046    0.0000 C   0  0  0  0  0  0  0  0  0  0  0  0
    4.9046   -1.1784    0.0000 C   0  0  0  0  0  0  0  0  0  0  0  0
    4.1066    0.0917    0.0000 C   0  0  0  0  0  0  0  0  0  0  0  0
    4.8075    1.4179    0.0000 C   0  0  0  0  0  0  0  0  0  0  0  0
    4.0095    2.6880    0.0000 C   0  0  0  0  0  0  0  0  0  0  0  0
    2.5105    2.6319    0.0000 C   0  0  0  0  0  0  0  0  0  0  0  0
    1.8096    1.3057    0.0000 C   0  0  0  0  0  0  0  0  0  0  0  0
    2.6076    0.0356    0.0000 C   0  0  0  0  0  0  0  0  0  0  0  0
    0.3106    1.2497    0.0000 N   0  0  0  0  0  0  0  0  0  0  0  0
   -2.5901   -1.4587    0.0000 C   0  0  0  0  0  0  0  0  0  0  0  0
   -4.0891   -1.5148    0.0000 C   0  0  0  0  0  0  0  0  0  0  0  0
  1  2  1  0
  2  3  1  0
  3  4  2  0
  4  5  1  0
  5  6  2  0
  6  7  1  0
  7  8  1  0
  8  9  1  0
  9 10  2  0
 10 11  1  0
 11 12  2  0
 12 13  1  0
 13 14  2  0
 14 15  1  0
 15 16  2  0
 16 17  1  0
 17 18  2  0
 17 19  1  0
  6 20  1  0
 20 21  2  0
 21  3  1  0
 19  7  1  0
 18  9  1  0
 18 13  1  0
M  END
