
     RDKit          2D

 21 23  0  0  0  0  0  0  0  0999 V2000
   -5.0008    1.7412    0.0000 C   0  0  0  0  0  0  0  0  0  0  0  0
   -5.1668    0.2504    0.0000 O   0  0  0  0  0  0  0  0  0  0  0  0
   -3.9587   -0.6387    0.0000 C   0  0  0  0  0  0  0  0  0  0  0  0
   -5.0442   -1.6741    0.0000 C   0  0  0  0  0  0  0  0  0  0  0  0
   -3.2929    0.7054    0.0000 C   0  0  0  0  0  0  0  0  0  0  0  0
   -1.7959    0.8008    0.0000 C   0  0  0  0  0  0  0  0  0  0  0  0
   -1.1301    2.1449    0.0000 C   0  0  0  0  0  0  0  0  0  0  0  0
    0.3669    2.2403    0.0000 C   0  0  0  0  0  0  0  0  0  0  0  0
    1.1980    0.9916    0.0000 C   0  0  0  0  0  0  0  0  0  0  0  0
    2.6821    0.7737    0.0000 C   0  0  0  0  0  0  0  0  0  0  0  0
    3.7307    1.8463    0.0000 O   0  0  0  0  0  0  0  0  0  0  0  0
    2.9334   -0.7050    0.0000 C   0  0  0  0  0  0  0  0  0  0  0  0
    3.4868   -2.0992    0.0000 O   0  0  0  0  0  0  0  0  0  0  0  0
    4.3779   -0.3005    0.0000 C   0  0  0  0  0  0  0  0  0  0  0  0
    5.4504   -1.3491    0.0000 C   0  0  0  0  0  0  0  0  0  0  0  0
    4.7497    1.1527    0.0000 C   0  0  0  0  0  0  0  0  0  0  0  0
    1.6047   -1.4011    0.0000 O   0  0  0  0  0  0  0  0  0  0  0  0
    0.5321   -0.3525    0.0000 C   0  0  0  0  0  0  0  0  0  0  0  0
   -0.9648   -0.4479    0.0000 C   0  0  0  0  0  0  0  0  0  0  0  0
   -1.6307   -1.7920    0.0000 C   0  0  0  0  0  0  0  0  0  0  0  0
   -3.1276   -1.8874    0.0000 O   0  0  0  0  0  0  0  0  0  0  0  0
  1  2  1  0
  2  3  1  0
  3  4  1  1
  3  5  1  0
  5  6  1  0
  6  7  2  0
  7  8  1  0
  8  9  2  0
  9 10  1  0
 10 11  2  0
 10 12  1  0
 12 13  1  1
 12 14  1  0
 14 15  1  0
 14 16  1  0
 12 17  1  0
 17 18  1  0
 18 19  2  0
 19 20  1  0
 20 21  1  0
 21  3  1  0
 19  6  1  0
 18  9  1  0
M  END
