
     RDKit          2D

 21 24  0  0  0  0  0  0  0  0999 V2000
   -5.5055    0.3600    0.0000 C   0  0  0  0  0  0  0  0  0  0  0  0
   -4.6098   -0.8432    0.0000 O   0  0  0  0  0  0  0  0  0  0  0  0
   -3.1199   -0.6691    0.0000 C   0  0  0  0  0  0  0  0  0  0  0  0
   -2.1034   -1.7721    0.0000 C   0  0  0  0  0  0  0  0  0  0  0  0
   -0.7402   -1.1461    0.0000 O   0  0  0  0  0  0  0  0  0  0  0  0
   -0.9143    0.3437    0.0000 C   0  0  0  0  0  0  0  0  0  0  0  0
   -2.3851    0.6385    0.0000 C   0  0  0  0  0  0  0  0  0  0  0  0
   -2.5592    2.1284    0.0000 O   0  0  0  0  0  0  0  0  0  0  0  0
   -1.1960    2.7544    0.0000 C   0  0  0  0  0  0  0  0  0  0  0  0
   -0.1795    1.6514    0.0000 C   0  0  0  0  0  0  0  0  0  0  0  0
    1.3104    1.8255    0.0000 N   0  0  0  0  0  0  0  0  0  0  0  0
    2.0453    3.1332    0.0000 N   0  0  0  0  0  0  0  0  0  0  0  0
    3.5160    2.8383    0.0000 N   0  0  0  0  0  0  0  0  0  0  0  0
    3.6901    1.3485    0.0000 N   0  0  0  0  0  0  0  0  0  0  0  0
    2.3270    0.7225    0.0000 C   0  0  0  0  0  0  0  0  0  0  0  0
    2.0322   -0.7482    0.0000 C   0  0  0  0  0  0  0  0  0  0  0  0
    0.6111   -1.2283    0.0000 C   0  0  0  0  0  0  0  0  0  0  0  0
    0.3162   -2.6990    0.0000 C   0  0  0  0  0  0  0  0  0  0  0  0
    1.4425   -3.6897    0.0000 C   0  0  0  0  0  0  0  0  0  0  0  0
    2.8637   -3.2097    0.0000 C   0  0  0  0  0  0  0  0  0  0  0  0
    3.1585   -1.7389    0.0000 C   0  0  0  0  0  0  0  0  0  0  0  0
  1  2  1  0
  3  2  1  1
  3  4  1  0
  4  5  1  0
  6  5  1  1
  6  7  1  0
  7  8  1  1
  8  9  1  0
  9 10  1  0
 10 11  1  6
 11 12  1  0
 12 13  2  0
 13 14  1  0
 14 15  2  0
 15 16  1  0
 16 17  2  0
 17 18  1  0
 18 19  2  0
 19 20  1  0
 20 21  2  0
  7  3  1  0
 15 11  1  0
 21 16  1  0
 10  6  1  0
M  END
