
     RDKit          2D

 21 23  0  0  0  0  0  0  0  0999 V2000
   -0.6725   -3.1422    0.0000 C   0  0  0  0  0  0  0  0  0  0  0  0
   -1.6209   -1.9800    0.0000 C   0  0  0  0  0  0  0  0  0  0  0  0
   -3.0373   -2.4737    0.0000 C   0  0  0  0  0  0  0  0  0  0  0  0
   -4.4397   -1.9415    0.0000 C   0  0  0  0  0  0  0  0  0  0  0  0
   -5.1719   -0.6323    0.0000 C   0  0  0  0  0  0  0  0  0  0  0  0
   -4.8912    0.8412    0.0000 C   0  0  0  0  0  0  0  0  0  0  0  0
   -6.1799    1.6089    0.0000 C   0  0  0  0  0  0  0  0  0  0  0  0
   -3.7291    1.7896    0.0000 C   0  0  0  0  0  0  0  0  0  0  0  0
   -2.2292    1.7691    0.0000 C   0  0  0  0  0  0  0  0  0  0  0  0
   -1.0934    0.7893    0.0000 C   0  0  0  0  0  0  0  0  0  0  0  0
   -0.8532   -0.6914    0.0000 C   0  0  0  0  0  0  0  0  0  0  0  0
    0.6274   -0.4511    0.0000 C   0  0  0  0  0  0  0  0  0  0  0  0
    0.3872    1.0295    0.0000 C   0  0  0  0  0  0  0  0  0  0  0  0
    0.1469    2.5102    0.0000 C   0  0  0  0  0  0  0  0  0  0  0  0
    1.8678    1.2698    0.0000 C   0  0  0  0  0  0  0  0  0  0  0  0
    2.8162    0.1076    0.0000 C   0  0  0  0  0  0  0  0  0  0  0  0
    4.2968    0.3479    0.0000 C   0  0  0  0  0  0  0  0  0  0  0  0
    5.4590    1.2963    0.0000 O   0  0  0  0  0  0  0  0  0  0  0  0
    5.6992   -0.1844    0.0000 C   0  0  0  0  0  0  0  0  0  0  0  0
    7.1991   -0.2049    0.0000 C   0  0  0  0  0  0  0  0  0  0  0  0
    5.4186   -1.6579    0.0000 C   0  0  0  0  0  0  0  0  0  0  0  0
  1  2  2  0
  2  3  1  0
  3  4  1  0
  4  5  1  0
  5  6  2  0
  6  7  1  0
  6  8  1  0
  8  9  1  0
 10  9  1  1
 10 11  1  0
 11 12  1  6
 12 13  1  0
 13 14  1  1
 13 15  1  0
 15 16  1  0
 17 16  1  1
 17 18  1  0
 18 19  1  0
 19 20  1  0
 19 21  1  0
 11  2  1  0
 19 17  1  0
 13 10  1  0
M  END
