
     RDKit          2D

 21 19  0  0  0  0  0  0  0  0999 V2000
    4.8458    0.8403    0.0000 O   0  0  0  0  0  0  0  0  0  0  0  0
    4.5192   -0.6238    0.0000 C   0  0  0  0  0  0  0  0  0  0  0  0
    5.6238   -1.6386    0.0000 O   0  0  0  0  0  0  0  0  0  0  0  0
    3.0881   -1.0730    0.0000 C   0  0  0  0  0  0  0  0  0  0  0  0
    1.9835   -0.0582    0.0000 N   0  0  0  0  0  0  0  0  0  0  0  0
    0.5523   -0.5074    0.0000 C   0  0  0  0  0  0  0  0  0  0  0  0
   -0.5523    0.5074    0.0000 C   0  0  0  0  0  0  0  0  0  0  0  0
   -1.9835    0.0582    0.0000 N   0  0  0  0  0  0  0  0  0  0  0  0
   -3.0881    1.0730    0.0000 C   0  0  0  0  0  0  0  0  0  0  0  0
   -4.5192    0.6238    0.0000 C   0  0  0  0  0  0  0  0  0  0  0  0
   -4.8458   -0.8403    0.0000 O   0  0  0  0  0  0  0  0  0  0  0  0
   -5.6238    1.6386    0.0000 O   0  0  0  0  0  0  0  0  0  0  0  0
   -2.3100   -1.4058    0.0000 C   0  0  0  0  0  0  0  0  0  0  0  0
   -1.2054   -2.4207    0.0000 C   0  0  0  0  0  0  0  0  0  0  0  0
    0.2258   -1.9714    0.0000 O   0  0  0  0  0  0  0  0  0  0  0  0
   -1.5319   -3.8847    0.0000 O   0  0  0  0  0  0  0  0  0  0  0  0
    2.3100    1.4058    0.0000 C   0  0  0  0  0  0  0  0  0  0  0  0
    1.2054    2.4207    0.0000 C   0  0  0  0  0  0  0  0  0  0  0  0
   -0.2258    1.9714    0.0000 O   0  0  0  0  0  0  0  0  0  0  0  0
    1.5319    3.8847    0.0000 O   0  0  0  0  0  0  0  0  0  0  0  0
    0.0000    4.8847    0.0000 Ca  0  0  0  0  0 15  0  0  0  0  0  0
  1  2  2  0
  2  3  1  0
  2  4  1  0
  4  5  1  0
  5  6  1  0
  6  7  1  0
  7  8  1  0
  8  9  1  0
  9 10  1  0
 10 11  2  0
 10 12  1  0
  8 13  1  0
 13 14  1  0
 14 15  2  0
 14 16  1  0
  5 17  1  0
 17 18  1  0
 18 19  2  0
 18 20  1  0
M  CHG  3   3  -1  20  -1  21   2
M  END
