
     RDKit          2D

 21 21  0  0  0  0  0  0  0  0999 V2000
   -2.8293   -2.1460    0.0000 C   0  0  0  0  0  0  0  0  0  0  0  0
   -2.3499   -0.7247    0.0000 C   0  0  0  0  0  0  0  0  0  0  0  0
   -0.8793   -0.4291    0.0000 C   0  0  0  0  0  0  0  0  0  0  0  0
   -0.4000    0.9922    0.0000 C   0  0  0  0  0  0  0  0  0  0  0  0
    1.0706    1.2878    0.0000 C   0  0  0  0  0  0  0  0  0  0  0  0
    2.0618    0.1620    0.0000 C   0  0  0  0  0  0  0  0  0  0  0  0
    3.5324    0.4575    0.0000 C   0  0  0  0  0  0  0  0  0  0  0  0
    4.5237   -0.6682    0.0000 C   0  0  0  0  0  0  0  0  0  0  0  0
    5.9943   -0.3727    0.0000 C   0  0  0  0  0  0  0  0  0  0  0  0
    7.0978   -1.3887    0.0000 C   0  0  0  0  0  0  0  0  0  0  0  0
    8.4051   -0.6532    0.0000 N   0  0  0  0  0  0  0  0  0  0  0  0
    8.1095    0.8174    0.0000 C   0  0  0  0  0  0  0  0  0  0  0  0
    6.6196    0.9908    0.0000 O   0  0  0  0  0  0  0  0  0  0  0  0
   -3.3412    0.4011    0.0000 C   0  0  0  0  0  0  0  0  0  0  0  0
   -2.8619    1.8225    0.0000 O   0  0  0  0  0  0  0  0  0  0  0  0
   -4.8118    0.1056    0.0000 C   0  0  0  0  0  0  0  0  0  0  0  0
   -4.5162   -1.3650    0.0000 C   0  0  0  0  0  0  0  0  0  0  0  0
   -5.1073    1.5762    0.0000 C   0  0  0  0  0  0  0  0  0  0  0  0
   -6.2824   -0.1900    0.0000 C   0  0  0  0  0  0  0  0  0  0  0  0
   -6.7617   -1.6113    0.0000 N   0  0  0  0  0  0  0  0  0  0  0  0
   -7.2736    0.9358    0.0000 O   0  0  0  0  0  0  0  0  0  0  0  0
  1  2  1  0
  2  3  2  0
  3  4  1  0
  4  5  2  0
  5  6  1  0
  6  7  2  0
  7  8  1  0
  8  9  1  0
  9 10  2  0
 10 11  1  0
 11 12  2  0
 12 13  1  0
  2 14  1  0
 14 15  1  1
 14 16  1  0
 16 17  1  0
 16 18  1  0
 16 19  1  0
 19 20  1  0
 19 21  2  0
 13  9  1  0
M  END
