
     RDKit          2D

 21 22  0  0  0  0  0  0  0  0999 V2000
    8.1442    1.2219    0.0000 O   0  0  0  0  0  0  0  0  0  0  0  0
    6.6559    1.4087    0.0000 N   0  0  0  0  0  0  0  0  0  0  0  0
    5.7499    0.2132    0.0000 C   0  0  0  0  0  0  0  0  0  0  0  0
    6.3323   -1.1691    0.0000 O   0  0  0  0  0  0  0  0  0  0  0  0
    4.2616    0.4001    0.0000 C   0  0  0  0  0  0  0  0  0  0  0  0
    3.3556   -0.7954    0.0000 N   0  0  0  0  0  0  0  0  0  0  0  0
    1.8673   -0.6085    0.0000 S   0  0  0  0  0  0  0  0  0  0  0  0
    1.6804   -2.0968    0.0000 O   0  0  0  0  0  0  0  0  0  0  0  0
    2.0542    0.8798    0.0000 O   0  0  0  0  0  0  0  0  0  0  0  0
    0.3790   -0.4217    0.0000 C   0  0  0  0  0  0  0  0  0  0  0  0
   -0.5270   -1.6171    0.0000 C   0  0  0  0  0  0  0  0  0  0  0  0
   -2.0153   -1.4303    0.0000 C   0  0  0  0  0  0  0  0  0  0  0  0
   -2.5976   -0.0479    0.0000 C   0  0  0  0  0  0  0  0  0  0  0  0
   -4.0859    0.1389    0.0000 C   0  0  0  0  0  0  0  0  0  0  0  0
   -4.6683    1.5213    0.0000 C   0  0  0  0  0  0  0  0  0  0  0  0
   -6.1566    1.7082    0.0000 C   0  0  0  0  0  0  0  0  0  0  0  0
   -7.0626    0.5127    0.0000 C   0  0  0  0  0  0  0  0  0  0  0  0
   -6.4803   -0.8697    0.0000 C   0  0  0  0  0  0  0  0  0  0  0  0
   -4.9919   -1.0565    0.0000 C   0  0  0  0  0  0  0  0  0  0  0  0
   -1.6916    1.1476    0.0000 C   0  0  0  0  0  0  0  0  0  0  0  0
   -0.2033    0.9607    0.0000 C   0  0  0  0  0  0  0  0  0  0  0  0
  1  2  2  0
  2  3  1  0
  3  4  2  0
  3  5  1  0
  5  6  1  0
  6  7  1  0
  7  8  2  0
  7  9  2  0
  7 10  1  0
 10 11  2  0
 11 12  1  0
 12 13  2  0
 13 14  1  0
 14 15  2  0
 15 16  1  0
 16 17  2  0
 17 18  1  0
 18 19  2  0
 13 20  1  0
 20 21  2  0
 21 10  1  0
 19 14  1  0
M  END
