
     RDKit          2D

 21 21  0  0  0  0  0  0  0  0999 V2000
    8.5216   -0.4350    0.0000 C   0  0  0  0  0  0  0  0  0  0  0  0
    7.1693   -1.0840    0.0000 C   0  0  0  0  0  0  0  0  0  0  0  0
    5.9311   -0.2373    0.0000 C   0  0  0  0  0  0  0  0  0  0  0  0
    4.5787   -0.8862    0.0000 C   0  0  0  0  0  0  0  0  0  0  0  0
    3.3406   -0.0395    0.0000 C   0  0  0  0  0  0  0  0  0  0  0  0
    1.9882   -0.6885    0.0000 C   0  0  0  0  0  0  0  0  0  0  0  0
    0.7500    0.1582    0.0000 C   0  0  0  0  0  0  0  0  0  0  0  0
    0.8642    1.6539    0.0000 C   0  0  0  0  0  0  0  0  0  0  0  0
   -0.3740    2.5006    0.0000 C   0  0  0  0  0  0  0  0  0  0  0  0
   -0.4168    4.0000    0.0000 C   0  0  0  0  0  0  0  0  0  0  0  0
   -1.8560    4.4226    0.0000 C   0  0  0  0  0  0  0  0  0  0  0  0
   -2.7027    3.1844    0.0000 C   0  0  0  0  0  0  0  0  0  0  0  0
   -4.2021    3.1416    0.0000 O   0  0  0  0  0  0  0  0  0  0  0  0
   -1.7868    1.9965    0.0000 C   0  0  0  0  0  0  0  0  0  0  0  0
   -2.2094    0.5573    0.0000 C   0  0  0  0  0  0  0  0  0  0  0  0
   -3.6671    0.2037    0.0000 C   0  0  0  0  0  0  0  0  0  0  0  0
   -4.0898   -1.2355    0.0000 C   0  0  0  0  0  0  0  0  0  0  0  0
   -3.0547   -2.3211    0.0000 C   0  0  0  0  0  0  0  0  0  0  0  0
   -3.4773   -3.7604    0.0000 C   0  0  0  0  0  0  0  0  0  0  0  0
   -2.4422   -4.8460    0.0000 C   0  0  0  0  0  0  0  0  0  0  0  0
   -2.8649   -6.2852    0.0000 N   0  0  0  0  0  0  0  0  0  0  0  0
  1  2  1  0
  2  3  1  0
  3  4  1  0
  4  5  1  0
  5  6  1  0
  6  7  2  0
  7  8  1  0
  9  8  1  1
  9 10  1  0
 10 11  2  0
 11 12  1  0
 12 13  2  0
 12 14  1  0
 14 15  1  6
 15 16  1  0
 16 17  2  0
 17 18  1  0
 18 19  1  0
 19 20  1  0
 20 21  1  0
 14  9  1  0
M  END
