
     RDKit          2D

 21 24  0  0  0  0  0  0  0  0999 V2000
   -5.0517   -0.7749    0.0000 C   0  0  0  0  0  0  0  0  0  0  0  0
   -3.6258   -0.3093    0.0000 C   0  0  0  0  0  0  0  0  0  0  0  0
   -2.4110   -1.1892    0.0000 C   0  0  0  0  0  0  0  0  0  0  0  0
   -2.4088   -2.6892    0.0000 O   0  0  0  0  0  0  0  0  0  0  0  0
   -1.1988   -0.3058    0.0000 C   0  0  0  0  0  0  0  0  0  0  0  0
   -0.5867   -1.6752    0.0000 C   0  0  0  0  0  0  0  0  0  0  0  0
    0.9053   -1.8298    0.0000 C   0  0  0  0  0  0  0  0  0  0  0  0
    1.7852   -0.6150    0.0000 C   0  0  0  0  0  0  0  0  0  0  0  0
    3.2772   -0.7696    0.0000 C   0  0  0  0  0  0  0  0  0  0  0  0
    4.6264   -1.4252    0.0000 C   0  0  0  0  0  0  0  0  0  0  0  0
    2.8659   -2.2121    0.0000 C   0  0  0  0  0  0  0  0  0  0  0  0
    4.1572    0.4452    0.0000 C   0  0  0  0  0  0  0  0  0  0  0  0
    3.5451    1.8146    0.0000 C   0  0  0  0  0  0  0  0  0  0  0  0
    2.0530    1.9692    0.0000 C   0  0  0  0  0  0  0  0  0  0  0  0
    1.1731    0.7544    0.0000 C   0  0  0  0  0  0  0  0  0  0  0  0
    0.5610    2.1239    0.0000 C   0  0  0  0  0  0  0  0  0  0  0  0
   -0.3189    0.9091    0.0000 C   0  0  0  0  0  0  0  0  0  0  0  0
   -0.9310    2.2785    0.0000 C   0  0  0  0  0  0  0  0  0  0  0  0
   -2.4230    2.4331    0.0000 C   0  0  0  0  0  0  0  0  0  0  0  0
   -3.3029    1.2183    0.0000 C   0  0  0  0  0  0  0  0  0  0  0  0
   -2.6908   -0.1511    0.0000 C   0  0  0  0  0  0  0  0  0  0  0  0
  2  1  1  6
  2  3  1  0
  3  4  2  0
  3  5  1  0
  5  6  1  1
  6  7  1  0
  8  7  1  1
  8  9  1  0
  9 10  1  0
  9 11  1  0
  9 12  1  0
 12 13  1  0
 13 14  1  0
 14 15  1  0
 15 16  1  1
 15 17  1  0
 17 18  1  1
 18 19  1  0
 20 19  1  6
 20 21  1  0
 20  2  1  0
 17  5  1  0
 21  5  1  0
 15  8  1  0
M  END
