
     RDKit          2D

 21 25  0  0  0  0  0  0  0  0999 V2000
    5.2564   -1.0918    0.0000 O   0  0  0  0  0  0  0  0  0  0  0  0
    3.9219   -0.4070    0.0000 C   0  0  0  0  0  0  0  0  0  0  0  0
    2.5834   -1.0841    0.0000 C   0  0  0  0  0  0  0  0  0  0  0  0
    1.5258   -0.0203    0.0000 C   0  0  0  0  0  0  0  0  0  0  0  0
    2.2107    1.3142    0.0000 C   0  0  0  0  0  0  0  0  0  0  0  0
    3.6915    1.0752    0.0000 C   0  0  0  0  0  0  0  0  0  0  0  0
    1.3974    2.5746    0.0000 C   0  0  0  0  0  0  0  0  0  0  0  0
   -0.1008    2.5004    0.0000 C   0  0  0  0  0  0  0  0  0  0  0  0
   -0.9141    3.7608    0.0000 C   0  0  0  0  0  0  0  0  0  0  0  0
   -2.4122    3.6866    0.0000 C   0  0  0  0  0  0  0  0  0  0  0  0
   -3.0971    2.3521    0.0000 C   0  0  0  0  0  0  0  0  0  0  0  0
   -2.2838    1.0917    0.0000 C   0  0  0  0  0  0  0  0  0  0  0  0
   -2.9687   -0.2428    0.0000 C   0  0  0  0  0  0  0  0  0  0  0  0
   -2.1554   -1.5032    0.0000 N   0  0  0  0  0  0  0  0  0  0  0  0
   -2.8402   -2.8377    0.0000 C   0  0  0  0  0  0  0  0  0  0  0  0
   -2.0269   -4.0981    0.0000 C   0  0  0  0  0  0  0  0  0  0  0  0
   -0.5288   -4.0239    0.0000 C   0  0  0  0  0  0  0  0  0  0  0  0
    0.1561   -2.6894    0.0000 C   0  0  0  0  0  0  0  0  0  0  0  0
   -0.6572   -1.4290    0.0000 C   0  0  0  0  0  0  0  0  0  0  0  0
    0.0277   -0.0945    0.0000 N   0  0  0  0  0  0  0  0  0  0  0  0
   -0.7856    1.1659    0.0000 C   0  0  0  0  0  0  0  0  0  0  0  0
  1  2  2  0
  2  3  1  0
  3  4  2  0
  4  5  1  0
  5  6  1  0
  5  7  1  0
  7  8  1  0
  8  9  1  0
  9 10  1  0
 10 11  1  0
 11 12  1  0
 12 13  1  0
 13 14  1  0
 14 15  1  0
 15 16  1  0
 16 17  1  0
 17 18  1  0
 18 19  1  0
 19 20  1  0
 20 21  1  0
  6  2  1  0
 21  8  1  0
 20  4  1  0
 21 12  1  0
 19 14  1  0
M  END
