
     RDKit          2D

 21 25  0  0  0  0  0  0  0  0999 V2000
   -2.4130    1.9940    0.0000 O   0  0  0  0  0  0  0  0  0  0  0  0
   -2.5886    0.5043    0.0000 C   0  0  0  0  0  0  0  0  0  0  0  0
   -3.9665   -0.0885    0.0000 C   0  0  0  0  0  0  0  0  0  0  0  0
   -4.1421   -1.5781    0.0000 C   0  0  0  0  0  0  0  0  0  0  0  0
   -2.9398   -2.4750    0.0000 C   0  0  0  0  0  0  0  0  0  0  0  0
   -1.5619   -1.8823    0.0000 C   0  0  0  0  0  0  0  0  0  0  0  0
   -1.3863   -0.3926    0.0000 C   0  0  0  0  0  0  0  0  0  0  0  0
   -0.0084    0.2002    0.0000 C   0  0  0  0  0  0  0  0  0  0  0  0
    0.1672    1.6899    0.0000 C   0  0  0  0  0  0  0  0  0  0  0  0
   -0.8224    2.8172    0.0000 O   0  0  0  0  0  0  0  0  0  0  0  0
   -0.0561    4.1067    0.0000 C   0  0  0  0  0  0  0  0  0  0  0  0
    1.4071    3.7763    0.0000 O   0  0  0  0  0  0  0  0  0  0  0  0
    1.5451    2.2827    0.0000 C   0  0  0  0  0  0  0  0  0  0  0  0
    2.7474    1.3858    0.0000 C   0  0  0  0  0  0  0  0  0  0  0  0
    2.5718   -0.1039    0.0000 C   0  0  0  0  0  0  0  0  0  0  0  0
    1.1939   -0.6967    0.0000 C   0  0  0  0  0  0  0  0  0  0  0  0
    1.0184   -2.1864    0.0000 C   0  0  0  0  0  0  0  0  0  0  0  0
   -0.3595   -2.7792    0.0000 C   0  0  0  0  0  0  0  0  0  0  0  0
    2.2207   -3.0833    0.0000 N   0  0  0  0  0  0  0  0  0  0  0  0
    3.5986   -2.4905    0.0000 C   0  0  0  0  0  0  0  0  0  0  0  0
    3.7742   -1.0008    0.0000 C   0  0  0  0  0  0  0  0  0  0  0  0
  1  2  1  0
  2  3  2  0
  3  4  1  0
  4  5  2  0
  5  6  1  0
  6  7  2  0
  7  8  1  0
  8  9  2  0
  9 10  1  0
 10 11  1  0
 11 12  1  0
 12 13  1  0
 13 14  2  0
 14 15  1  0
 15 16  2  0
 16 17  1  0
 17 18  1  1
 17 19  1  0
 19 20  1  0
 20 21  1  0
  7  2  1  0
 16  8  1  0
 18  6  1  0
 13  9  1  0
 21 15  1  0
M  END
