
     RDKit          2D

 21 22  0  0  0  0  0  0  0  0999 V2000
   -3.0517    2.3242    0.0000 C   0  0  0  0  0  0  0  0  0  0  0  0
   -2.4470    0.9514    0.0000 C   0  0  0  0  0  0  0  0  0  0  0  0
   -3.3334   -0.2586    0.0000 C   0  0  0  0  0  0  0  0  0  0  0  0
   -2.7287   -1.6313    0.0000 O   0  0  0  0  0  0  0  0  0  0  0  0
   -4.8246   -0.0959    0.0000 O   0  0  0  0  0  0  0  0  0  0  0  0
   -5.7110   -1.3060    0.0000 C   0  0  0  0  0  0  0  0  0  0  0  0
   -0.9558    0.7888    0.0000 C   0  0  0  0  0  0  0  0  0  0  0  0
   -0.3511   -0.5840    0.0000 C   0  0  0  0  0  0  0  0  0  0  0  0
   -1.2376   -1.7940    0.0000 O   0  0  0  0  0  0  0  0  0  0  0  0
    1.1400   -0.7466    0.0000 C   0  0  0  0  0  0  0  0  0  0  0  0
    1.7447   -2.1193    0.0000 C   0  0  0  0  0  0  0  0  0  0  0  0
    0.8583   -3.3294    0.0000 O   0  0  0  0  0  0  0  0  0  0  0  0
    3.2359   -2.2820    0.0000 C   0  0  0  0  0  0  0  0  0  0  0  0
    4.1223   -1.0720    0.0000 C   0  0  0  0  0  0  0  0  0  0  0  0
    3.5176    0.3007    0.0000 C   0  0  0  0  0  0  0  0  0  0  0  0
    4.4041    1.5108    0.0000 O   0  0  0  0  0  0  0  0  0  0  0  0
    2.0265    0.4634    0.0000 C   0  0  0  0  0  0  0  0  0  0  0  0
    2.9130    1.6734    0.0000 C   0  0  0  0  0  0  0  0  0  0  0  0
    1.4218    1.8361    0.0000 C   0  0  0  0  0  0  0  0  0  0  0  0
   -0.0693    1.9988    0.0000 C   0  0  0  0  0  0  0  0  0  0  0  0
   -0.6740    3.3715    0.0000 O   0  0  0  0  0  0  0  0  0  0  0  0
  1  2  2  0
  2  3  1  0
  3  4  2  0
  3  5  1  0
  5  6  1  0
  7  2  1  1
  7  8  1  0
  8  9  1  1
  8 10  1  0
 10 11  1  1
 11 12  2  0
 11 13  1  0
 13 14  1  0
 14 15  1  0
 15 16  1  1
 15 17  1  0
 17 18  1  1
 17 19  1  0
 19 20  1  0
 20 21  1  6
 20  7  1  0
 17 10  1  0
M  END
