
     RDKit          2D

 21 21  0  0  0  0  0  0  0  0999 V2000
   -5.9353   -2.6577    0.0000 C   0  0  0  0  0  0  0  0  0  0  0  0
   -5.1173   -1.4004    0.0000 O   0  0  0  0  0  0  0  0  0  0  0  0
   -3.6194   -1.4800    0.0000 C   0  0  0  0  0  0  0  0  0  0  0  0
   -2.9395   -2.8171    0.0000 O   0  0  0  0  0  0  0  0  0  0  0  0
   -2.8015   -0.2227    0.0000 C   0  0  0  0  0  0  0  0  0  0  0  0
   -3.4814    1.1144    0.0000 C   0  0  0  0  0  0  0  0  0  0  0  0
   -2.6635    2.3717    0.0000 C   0  0  0  0  0  0  0  0  0  0  0  0
   -3.3434    3.7088    0.0000 C   0  0  0  0  0  0  0  0  0  0  0  0
   -1.1656    2.2921    0.0000 C   0  0  0  0  0  0  0  0  0  0  0  0
   -0.4857    0.9550    0.0000 C   0  0  0  0  0  0  0  0  0  0  0  0
    1.0122    0.8754    0.0000 C   0  0  0  0  0  0  0  0  0  0  0  0
    1.8302    2.1327    0.0000 O   0  0  0  0  0  0  0  0  0  0  0  0
    1.6922   -0.4617    0.0000 C   0  0  0  0  0  0  0  0  0  0  0  0
    3.1900   -0.5414    0.0000 C   0  0  0  0  0  0  0  0  0  0  0  0
    4.0080    0.7160    0.0000 C   0  0  0  0  0  0  0  0  0  0  0  0
    3.3280    2.0530    0.0000 O   0  0  0  0  0  0  0  0  0  0  0  0
    5.5059    0.6363    0.0000 O   0  0  0  0  0  0  0  0  0  0  0  0
    3.8700   -1.8784    0.0000 C   0  0  0  0  0  0  0  0  0  0  0  0
    5.3679   -1.9581    0.0000 C   0  0  0  0  0  0  0  0  0  0  0  0
    3.0520   -3.1358    0.0000 C   0  0  0  0  0  0  0  0  0  0  0  0
   -1.3036   -0.3023    0.0000 C   0  0  0  0  0  0  0  0  0  0  0  0
  1  2  1  0
  2  3  1  0
  3  4  2  0
  3  5  1  0
  5  6  2  0
  6  7  1  0
  7  8  1  0
  7  9  2  0
  9 10  1  0
 10 11  1  0
 11 12  2  0
 11 13  1  0
 13 14  1  0
 14 15  1  0
 15 16  2  0
 15 17  1  0
 14 18  1  0
 18 19  1  0
 18 20  1  0
 10 21  2  0
 21  5  1  0
M  END
