
     RDKit          2D

 21 22  0  0  0  0  0  0  0  0999 V2000
   -7.2156    0.3216    0.0000 C   0  0  0  0  0  0  0  0  0  0  0  0
   -5.7849    0.7722    0.0000 O   0  0  0  0  0  0  0  0  0  0  0  0
   -4.6793   -0.2415    0.0000 C   0  0  0  0  0  0  0  0  0  0  0  0
   -5.0044   -1.7058    0.0000 O   0  0  0  0  0  0  0  0  0  0  0  0
   -3.2486    0.2091    0.0000 C   0  0  0  0  0  0  0  0  0  0  0  0
   -2.9234    1.6734    0.0000 C   0  0  0  0  0  0  0  0  0  0  0  0
   -1.4927    2.1240    0.0000 C   0  0  0  0  0  0  0  0  0  0  0  0
   -0.3871    1.1103    0.0000 C   0  0  0  0  0  0  0  0  0  0  0  0
    1.0436    1.5609    0.0000 O   0  0  0  0  0  0  0  0  0  0  0  0
    2.1492    0.5472    0.0000 C   0  0  0  0  0  0  0  0  0  0  0  0
    1.8241   -0.9172    0.0000 C   0  0  0  0  0  0  0  0  0  0  0  0
    2.9296   -1.9309    0.0000 C   0  0  0  0  0  0  0  0  0  0  0  0
    2.6045   -3.3952    0.0000 C   0  0  0  0  0  0  0  0  0  0  0  0
    1.1738   -3.8458    0.0000 O   0  0  0  0  0  0  0  0  0  0  0  0
    4.3604   -1.4803    0.0000 C   0  0  0  0  0  0  0  0  0  0  0  0
    4.6855   -0.0160    0.0000 C   0  0  0  0  0  0  0  0  0  0  0  0
    3.5799    0.9978    0.0000 C   0  0  0  0  0  0  0  0  0  0  0  0
    3.9050    2.4621    0.0000 O   0  0  0  0  0  0  0  0  0  0  0  0
    5.3357    2.9127    0.0000 C   0  0  0  0  0  0  0  0  0  0  0  0
   -0.7123   -0.3540    0.0000 C   0  0  0  0  0  0  0  0  0  0  0  0
   -2.1430   -0.8046    0.0000 C   0  0  0  0  0  0  0  0  0  0  0  0
  1  2  1  0
  2  3  1  0
  3  4  2  0
  3  5  1  0
  5  6  2  0
  6  7  1  0
  7  8  2  0
  8  9  1  0
  9 10  1  0
 10 11  2  0
 11 12  1  0
 12 13  1  0
 13 14  1  0
 12 15  2  0
 15 16  1  0
 16 17  2  0
 17 18  1  0
 18 19  1  0
  8 20  1  0
 20 21  2  0
 21  5  1  0
 17 10  1  0
M  END
