
     RDKit          2D

 21 23  0  0  0  0  0  0  0  0999 V2000
    0.2853    3.6337    0.0000 C   0  0  0  0  0  0  0  0  0  0  0  0
    0.6165    2.1707    0.0000 C   0  0  0  0  0  0  0  0  0  0  0  0
   -0.4849    1.1524    0.0000 C   0  0  0  0  0  0  0  0  0  0  0  0
   -0.1537   -0.3106    0.0000 C   0  0  0  0  0  0  0  0  0  0  0  0
   -1.2551   -1.3289    0.0000 C   0  0  0  0  0  0  0  0  0  0  0  0
   -2.6877   -0.8843    0.0000 C   0  0  0  0  0  0  0  0  0  0  0  0
   -3.0189    0.5787    0.0000 N   0  0  0  0  0  0  0  0  0  0  0  0
   -1.9175    1.5970    0.0000 O   0  0  0  0  0  0  0  0  0  0  0  0
   -4.4514    1.0234    0.0000 C   0  0  0  0  0  0  0  0  0  0  0  0
   -5.5528    0.0050    0.0000 C   0  0  0  0  0  0  0  0  0  0  0  0
   -5.2216   -1.4579    0.0000 C   0  0  0  0  0  0  0  0  0  0  0  0
   -3.7890   -1.9026    0.0000 C   0  0  0  0  0  0  0  0  0  0  0  0
    1.2789   -0.7553    0.0000 C   0  0  0  0  0  0  0  0  0  0  0  0
    1.6101   -2.2182    0.0000 C   0  0  0  0  0  0  0  0  0  0  0  0
    3.0427   -2.6629    0.0000 C   0  0  0  0  0  0  0  0  0  0  0  0
    4.1440   -1.6446    0.0000 C   0  0  0  0  0  0  0  0  0  0  0  0
    3.8128   -0.1816    0.0000 N   0  0  0  0  0  0  0  0  0  0  0  0
    4.0020    1.3064    0.0000 C   0  0  0  0  0  0  0  0  0  0  0  0
    5.3111   -0.1095    0.0000 O   0  0  0  0  0  0  0  0  0  0  0  0
    2.3802    0.2631    0.0000 C   0  0  0  0  0  0  0  0  0  0  0  0
    2.0490    1.7260    0.0000 C   0  0  0  0  0  0  0  0  0  0  0  0
  2  1  1  1
  2  3  1  0
  3  4  1  0
  4  5  1  6
  5  6  1  0
  6  7  2  0
  7  8  1  0
  7  9  1  0
  9 10  1  0
 10 11  1  0
 11 12  1  0
  4 13  1  0
 13 14  1  6
 14 15  1  0
 15 16  1  0
 16 17  1  0
 17 18  1  6
 17 19  1  0
 17 20  1  0
 20 21  1  1
 21  2  1  0
 12  6  1  0
 20 13  1  0
M  CHG  4   7   1   8  -1  17   1  19  -1
M  END
