
     RDKit          2D

 21 20  0  0  0  0  0  0  0  0999 V2000
   12.2316    0.6505    0.0000 C   0  0  0  0  0  0  0  0  0  0  0  0
   10.9839   -0.1820    0.0000 C   0  0  0  0  0  0  0  0  0  0  0  0
    9.6390    0.4823    0.0000 C   0  0  0  0  0  0  0  0  0  0  0  0
    8.3912   -0.3502    0.0000 C   0  0  0  0  0  0  0  0  0  0  0  0
    7.0464    0.3141    0.0000 C   0  0  0  0  0  0  0  0  0  0  0  0
    5.7986   -0.5185    0.0000 C   0  0  0  0  0  0  0  0  0  0  0  0
    4.4537    0.1458    0.0000 C   0  0  0  0  0  0  0  0  0  0  0  0
    3.2060   -0.6867    0.0000 C   0  0  0  0  0  0  0  0  0  0  0  0
    1.8611   -0.0224    0.0000 C   0  0  0  0  0  0  0  0  0  0  0  0
    0.6134   -0.8549    0.0000 C   0  0  0  0  0  0  0  0  0  0  0  0
   -0.7315   -0.1906    0.0000 C   0  0  0  0  0  0  0  0  0  0  0  0
   -0.8286    1.3062    0.0000 O   0  0  0  0  0  0  0  0  0  0  0  0
   -1.9792   -1.0232    0.0000 C   0  0  0  0  0  0  0  0  0  0  0  0
   -3.3241   -0.3589    0.0000 C   0  0  0  0  0  0  0  0  0  0  0  0
   -4.6690    0.3055    0.0000 C   0  0  0  0  0  0  0  0  0  0  0  0
   -6.0139    0.9698    0.0000 C   0  0  0  0  0  0  0  0  0  0  0  0
   -7.2616    0.1372    0.0000 C   0  0  0  0  0  0  0  0  0  0  0  0
   -8.6065    0.8015    0.0000 C   0  0  0  0  0  0  0  0  0  0  0  0
   -9.8542   -0.0310    0.0000 C   0  0  0  0  0  0  0  0  0  0  0  0
   -9.7571   -1.5279    0.0000 O   0  0  0  0  0  0  0  0  0  0  0  0
  -11.1991    0.6333    0.0000 O   0  0  0  0  0  0  0  0  0  0  0  0
  1  2  1  0
  2  3  1  0
  3  4  1  0
  4  5  1  0
  5  6  1  0
  6  7  2  3
  7  8  1  0
  8  9  1  0
  9 10  2  3
 10 11  1  0
 11 12  1  0
 11 13  1  0
 13 14  1  0
 14 15  3  0
 15 16  1  0
 16 17  1  0
 17 18  1  0
 18 19  1  0
 19 20  2  0
 19 21  1  0
M  END
