
     RDKit          2D

 21 22  0  0  0  0  0  0  0  0999 V2000
    0.0520   -5.7517    0.0000 C   0  0  0  0  0  0  0  0  0  0  0  0
   -0.3090   -4.2958    0.0000 C   0  0  0  0  0  0  0  0  0  0  0  0
   -1.7504   -3.8805    0.0000 C   0  0  0  0  0  0  0  0  0  0  0  0
    0.7713   -3.2552    0.0000 C   0  0  0  0  0  0  0  0  0  0  0  0
    0.4103   -1.7993    0.0000 C   0  0  0  0  0  0  0  0  0  0  0  0
    1.4906   -0.7587    0.0000 C   0  0  0  0  0  0  0  0  0  0  0  0
    2.9320   -1.1740    0.0000 C   0  0  0  0  0  0  0  0  0  0  0  0
    4.0123   -0.1334    0.0000 C   0  0  0  0  0  0  0  0  0  0  0  0
    3.6513    1.3225    0.0000 C   0  0  0  0  0  0  0  0  0  0  0  0
    4.7316    2.3631    0.0000 O   0  0  0  0  0  0  0  0  0  0  0  0
    2.2099    1.7378    0.0000 C   0  0  0  0  0  0  0  0  0  0  0  0
    1.1296    0.6972    0.0000 C   0  0  0  0  0  0  0  0  0  0  0  0
   -0.1940    1.4031    0.0000 C   0  0  0  0  0  0  0  0  0  0  0  0
   -1.5430    0.7472    0.0000 C   0  0  0  0  0  0  0  0  0  0  0  0
   -2.7855    1.5876    0.0000 C   0  0  0  0  0  0  0  0  0  0  0  0
   -2.6789    3.0838    0.0000 O   0  0  0  0  0  0  0  0  0  0  0  0
   -4.1345    0.9318    0.0000 C   0  0  0  0  0  0  0  0  0  0  0  0
   -5.3770    1.7722    0.0000 C   0  0  0  0  0  0  0  0  0  0  0  0
   -4.2410   -0.5644    0.0000 O   0  0  0  0  0  0  0  0  0  0  0  0
    0.0684    2.8800    0.0000 O   0  0  0  0  0  0  0  0  0  0  0  0
    1.5541    3.0868    0.0000 C   0  0  0  0  0  0  0  0  0  0  0  0
  1  2  1  0
  2  3  1  0
  2  4  2  0
  4  5  1  0
  5  6  1  0
  6  7  2  0
  7  8  1  0
  8  9  2  0
  9 10  1  0
  9 11  1  0
 11 12  2  0
 12 13  1  0
 13 14  1  6
 14 15  1  0
 15 16  1  1
 15 17  1  0
 17 18  1  1
 17 19  1  0
 13 20  1  0
 20 21  1  0
 12  6  1  0
 21 11  1  0
M  END
