
     RDKit          2D

 21 22  0  0  0  0  0  0  0  0999 V2000
    1.0608   -5.3145    0.0000 C   0  0  0  0  0  0  0  0  0  0  0  0
    0.3041   -4.0193    0.0000 C   0  0  0  0  0  0  0  0  0  0  0  0
   -1.1958   -4.0271    0.0000 O   0  0  0  0  0  0  0  0  0  0  0  0
    1.0474   -2.7164    0.0000 C   0  0  0  0  0  0  0  0  0  0  0  0
    0.2908   -1.4213    0.0000 C   0  0  0  0  0  0  0  0  0  0  0  0
   -1.2092   -1.4290    0.0000 C   0  0  0  0  0  0  0  0  0  0  0  0
   -1.9659   -0.1339    0.0000 C   0  0  0  0  0  0  0  0  0  0  0  0
   -3.4659   -0.1416    0.0000 O   0  0  0  0  0  0  0  0  0  0  0  0
   -4.2226    1.1536    0.0000 C   0  0  0  0  0  0  0  0  0  0  0  0
   -5.7226    1.1458    0.0000 C   0  0  0  0  0  0  0  0  0  0  0  0
   -3.4793    2.4565    0.0000 O   0  0  0  0  0  0  0  0  0  0  0  0
   -1.2226    1.1690    0.0000 C   0  0  0  0  0  0  0  0  0  0  0  0
    0.2774    1.1768    0.0000 C   0  0  0  0  0  0  0  0  0  0  0  0
    1.0340   -0.1184    0.0000 C   0  0  0  0  0  0  0  0  0  0  0  0
    2.5340   -0.1107    0.0000 O   0  0  0  0  0  0  0  0  0  0  0  0
    3.2773    1.1922    0.0000 C   0  0  0  0  0  0  0  0  0  0  0  0
    4.4214    2.1623    0.0000 C   0  0  0  0  0  0  0  0  0  0  0  0
    4.4313    0.2340    0.0000 C   0  0  0  0  0  0  0  0  0  0  0  0
    2.5206    2.4874    0.0000 C   0  0  0  0  0  0  0  0  0  0  0  0
    1.0207    2.4797    0.0000 C   0  0  0  0  0  0  0  0  0  0  0  0
    0.2640    3.7748    0.0000 O   0  0  0  0  0  0  0  0  0  0  0  0
  1  2  1  0
  2  3  2  0
  2  4  1  0
  4  5  1  0
  5  6  2  0
  6  7  1  0
  7  8  1  0
  8  9  1  0
  9 10  1  0
  9 11  2  0
  7 12  2  0
 12 13  1  0
 13 14  2  0
 14 15  1  0
 15 16  1  0
 16 17  1  0
 16 18  1  0
 16 19  1  0
 19 20  1  0
 20 21  2  0
 14  5  1  0
 20 13  1  0
M  END
