
     RDKit          2D

 21 20  0  0  0  0  0  0  0  0999 V2000
   -9.2012   -0.6785    0.0000 C   0  0  0  0  0  0  0  0  0  0  0  0
   -7.7040   -0.7698    0.0000 C   0  0  0  0  0  0  0  0  0  0  0  0
   -7.0344   -2.1121    0.0000 C   0  0  0  0  0  0  0  0  0  0  0  0
   -6.8763    0.4812    0.0000 C   0  0  0  0  0  0  0  0  0  0  0  0
   -5.3791    0.3899    0.0000 C   0  0  0  0  0  0  0  0  0  0  0  0
   -4.5514    1.6409    0.0000 C   0  0  0  0  0  0  0  0  0  0  0  0
   -3.0542    1.5496    0.0000 C   0  0  0  0  0  0  0  0  0  0  0  0
   -2.2266    2.8006    0.0000 C   0  0  0  0  0  0  0  0  0  0  0  0
   -2.3847    0.2074    0.0000 C   0  0  0  0  0  0  0  0  0  0  0  0
   -0.8874    0.1161    0.0000 C   0  0  0  0  0  0  0  0  0  0  0  0
   -0.2179   -1.2262    0.0000 C   0  0  0  0  0  0  0  0  0  0  0  0
    1.2793   -1.3175    0.0000 C   0  0  0  0  0  0  0  0  0  0  0  0
    1.9489   -2.6597    0.0000 C   0  0  0  0  0  0  0  0  0  0  0  0
    2.1070   -0.0665    0.0000 C   0  0  0  0  0  0  0  0  0  0  0  0
    3.6042   -0.1578    0.0000 C   0  0  0  0  0  0  0  0  0  0  0  0
    4.4319    1.0932    0.0000 C   0  0  0  0  0  0  0  0  0  0  0  0
    5.9291    1.0020    0.0000 C   0  0  0  0  0  0  0  0  0  0  0  0
    6.7568    2.2530    0.0000 C   0  0  0  0  0  0  0  0  0  0  0  0
    6.5987   -0.3403    0.0000 C   0  0  0  0  0  0  0  0  0  0  0  0
    8.0959   -0.4316    0.0000 C   0  0  0  0  0  0  0  0  0  0  0  0
    8.7654   -1.7739    0.0000 O   0  0  0  0  0  0  0  0  0  0  0  0
  1  2  1  0
  2  3  1  0
  2  4  2  0
  4  5  1  0
  5  6  1  0
  6  7  1  0
  7  8  1  0
  7  9  2  3
  9 10  1  0
 10 11  2  3
 11 12  1  0
 12 13  1  0
 12 14  2  3
 14 15  1  0
 15 16  2  3
 16 17  1  0
 17 18  1  0
 17 19  2  3
 19 20  1  0
 20 21  2  0
M  END
