
     RDKit          2D

 22 23  0  0  0  0  0  0  0  0999 V2000
   -9.4149    0.1366    0.0000 C   0  0  0  0  0  0  0  0  0  0  0  0
   -7.9448   -0.1613    0.0000 C   0  0  0  0  0  0  0  0  0  0  0  0
   -7.3216   -1.5257    0.0000 C   0  0  0  0  0  0  0  0  0  0  0  0
   -5.8314   -1.3547    0.0000 C   0  0  0  0  0  0  0  0  0  0  0  0
   -5.5336    0.1155    0.0000 N   0  0  0  0  0  0  0  0  0  0  0  0
   -4.1691    0.7386    0.0000 C   0  0  0  0  0  0  0  0  0  0  0  0
   -2.9472   -0.1314    0.0000 C   0  0  0  0  0  0  0  0  0  0  0  0
   -1.5828    0.4917    0.0000 C   0  0  0  0  0  0  0  0  0  0  0  0
   -0.3609   -0.3783    0.0000 C   0  0  0  0  0  0  0  0  0  0  0  0
    1.0035    0.2449    0.0000 N   0  0  0  0  0  0  0  0  0  0  0  0
    2.2254   -0.6252    0.0000 C   0  0  0  0  0  0  0  0  0  0  0  0
    2.0829   -2.1184    0.0000 O   0  0  0  0  0  0  0  0  0  0  0  0
    3.5898   -0.0020    0.0000 C   0  0  0  0  0  0  0  0  0  0  0  0
    4.8117   -0.8721    0.0000 C   0  0  0  0  0  0  0  0  0  0  0  0
    6.1761   -0.2489    0.0000 C   0  0  0  0  0  0  0  0  0  0  0  0
    7.3980   -1.1190    0.0000 C   0  0  0  0  0  0  0  0  0  0  0  0
    8.7625   -0.4958    0.0000 C   0  0  0  0  0  0  0  0  0  0  0  0
    8.9050    0.9974    0.0000 C   0  0  0  0  0  0  0  0  0  0  0  0
    7.6831    1.8674    0.0000 C   0  0  0  0  0  0  0  0  0  0  0  0
    6.3187    1.2443    0.0000 C   0  0  0  0  0  0  0  0  0  0  0  0
   -6.8397    0.8530    0.0000 C   0  0  0  0  0  0  0  0  0  0  0  0
   -7.0107    2.3433    0.0000 O   0  0  0  0  0  0  0  0  0  0  0  0
  1  2  1  0
  2  3  2  0
  3  4  1  0
  4  5  1  0
  5  6  1  0
  6  7  1  0
  7  8  1  0
  8  9  1  0
  9 10  1  0
 10 11  1  0
 11 12  2  0
 11 13  1  0
 13 14  2  3
 14 15  1  0
 15 16  2  0
 16 17  1  0
 17 18  2  0
 18 19  1  0
 19 20  2  0
  5 21  1  0
 21 22  2  0
 21  2  1  0
 20 15  1  0
M  END
