
     RDKit          2D

 22 25  0  0  0  0  0  0  0  0999 V2000
   -3.2616    1.8978    0.0000 C   0  0  0  0  0  0  0  0  0  0  0  0
   -2.4816    0.6165    0.0000 C   0  0  0  0  0  0  0  0  0  0  0  0
   -1.6284    1.8502    0.0000 C   0  0  0  0  0  0  0  0  0  0  0  0
   -0.1333    1.7281    0.0000 C   0  0  0  0  0  0  0  0  0  0  0  0
    0.5084    0.3723    0.0000 C   0  0  0  0  0  0  0  0  0  0  0  0
   -0.3448   -0.8613    0.0000 C   0  0  0  0  0  0  0  0  0  0  0  0
    0.2969   -2.2171    0.0000 C   0  0  0  0  0  0  0  0  0  0  0  0
    1.7920   -2.3392    0.0000 C   0  0  0  0  0  0  0  0  0  0  0  0
    2.6452   -1.1056    0.0000 C   0  0  0  0  0  0  0  0  0  0  0  0
    4.1402   -1.2277    0.0000 C   0  0  0  0  0  0  0  0  0  0  0  0
    4.9935    0.0060    0.0000 C   0  0  0  0  0  0  0  0  0  0  0  0
    6.4885   -0.1161    0.0000 O   0  0  0  0  0  0  0  0  0  0  0  0
    4.3517    1.3618    0.0000 C   0  0  0  0  0  0  0  0  0  0  0  0
    2.8567    1.4839    0.0000 C   0  0  0  0  0  0  0  0  0  0  0  0
    2.0035    0.2502    0.0000 C   0  0  0  0  0  0  0  0  0  0  0  0
    1.3617    1.6060    0.0000 C   0  0  0  0  0  0  0  0  0  0  0  0
   -1.8398   -0.7392    0.0000 C   0  0  0  0  0  0  0  0  0  0  0  0
   -2.9310   -1.7685    0.0000 C   0  0  0  0  0  0  0  0  0  0  0  0
   -4.2471   -1.0489    0.0000 C   0  0  0  0  0  0  0  0  0  0  0  0
   -5.6028   -1.6907    0.0000 O   0  0  0  0  0  0  0  0  0  0  0  0
   -3.9693    0.4252    0.0000 C   0  0  0  0  0  0  0  0  0  0  0  0
   -4.9987    1.5163    0.0000 O   0  0  0  0  0  0  0  0  0  0  0  0
  2  1  1  6
  2  3  1  0
  3  4  1  0
  5  4  1  6
  5  6  1  0
  6  7  1  1
  7  8  1  0
  8  9  2  0
  9 10  1  0
 10 11  1  0
 11 12  1  6
 11 13  1  0
 13 14  1  0
 14 15  1  0
 15 16  1  6
  6 17  1  0
 17 18  1  6
 18 19  1  0
 19 20  1  6
 19 21  1  0
 21 22  1  1
 17  2  1  0
 21  2  1  0
 15  5  1  0
 15  9  1  0
M  END
