
     RDKit          2D

 22 25  0  0  0  0  0  0  0  0999 V2000
    1.3928    2.8292    0.0000 C   0  0  0  0  0  0  0  0  0  0  0  0
    0.0846    2.0953    0.0000 C   0  0  0  0  0  0  0  0  0  0  0  0
   -1.1443    2.9555    0.0000 C   0  0  0  0  0  0  0  0  0  0  0  0
   -2.5830    2.5312    0.0000 C   0  0  0  0  0  0  0  0  0  0  0  0
   -3.1482    1.1418    0.0000 C   0  0  0  0  0  0  0  0  0  0  0  0
   -2.4144   -0.1665    0.0000 C   0  0  0  0  0  0  0  0  0  0  0  0
   -0.9340   -0.4084    0.0000 C   0  0  0  0  0  0  0  0  0  0  0  0
    0.1781    0.5982    0.0000 C   0  0  0  0  0  0  0  0  0  0  0  0
    1.6059    0.1384    0.0000 C   0  0  0  0  0  0  0  0  0  0  0  0
    1.9216   -1.3280    0.0000 C   0  0  0  0  0  0  0  0  0  0  0  0
    3.4137   -1.4810    0.0000 C   0  0  0  0  0  0  0  0  0  0  0  0
    4.0203   -0.1091    0.0000 C   0  0  0  0  0  0  0  0  0  0  0  0
    5.4867    0.2066    0.0000 C   0  0  0  0  0  0  0  0  0  0  0  0
    2.9030    0.8917    0.0000 C   0  0  0  0  0  0  0  0  0  0  0  0
    3.0559    2.3839    0.0000 O   0  0  0  0  0  0  0  0  0  0  0  0
    0.8094   -2.3346    0.0000 C   0  0  0  0  0  0  0  0  0  0  0  0
    1.1251   -3.8010    0.0000 O   0  0  0  0  0  0  0  0  0  0  0  0
   -0.6183   -1.8748    0.0000 C   0  0  0  0  0  0  0  0  0  0  0  0
   -1.7305   -2.8813    0.0000 C   0  0  0  0  0  0  0  0  0  0  0  0
   -3.9142   -0.1479    0.0000 C   0  0  0  0  0  0  0  0  0  0  0  0
   -4.1930   -1.6218    0.0000 C   0  0  0  0  0  0  0  0  0  0  0  0
   -5.3173    0.3825    0.0000 C   0  0  0  0  0  0  0  0  0  0  0  0
  1  2  2  0
  2  3  1  0
  3  4  1  0
  5  4  1  1
  5  6  1  0
  6  7  1  0
  7  8  1  0
  8  9  1  0
  9 10  2  0
 10 11  1  0
 11 12  1  0
 12 13  1  1
 12 14  1  0
 14 15  2  0
 10 16  1  0
 16 17  2  0
 16 18  1  0
 18 19  1  1
  6 20  1  1
 20 21  1  0
 20 22  1  0
  8  2  1  1
 14  9  1  0
 20  5  1  0
  7 18  1  6
M  END
