
     RDKit          2D

 22 24  0  0  0  0  0  0  0  0999 V2000
   -6.8237    2.0895    0.0000 C   0  0  0  0  0  0  0  0  0  0  0  0
   -6.1637    0.7425    0.0000 N   0  0  0  0  0  0  0  0  0  0  0  0
   -4.6672    0.6406    0.0000 C   0  0  0  0  0  0  0  0  0  0  0  0
   -4.0072   -0.7064    0.0000 C   0  0  0  0  0  0  0  0  0  0  0  0
   -4.8437   -1.9515    0.0000 O   0  0  0  0  0  0  0  0  0  0  0  0
   -2.5107   -0.8083    0.0000 N   0  0  0  0  0  0  0  0  0  0  0  0
   -1.8507   -2.1553    0.0000 C   0  0  0  0  0  0  0  0  0  0  0  0
   -0.3541   -2.2572    0.0000 C   0  0  0  0  0  0  0  0  0  0  0  0
    0.4824   -1.0121    0.0000 N   0  0  0  0  0  0  0  0  0  0  0  0
    1.9470   -1.3360    0.0000 C   0  0  0  0  0  0  0  0  0  0  0  0
    2.2907   -2.7960    0.0000 O   0  0  0  0  0  0  0  0  0  0  0  0
    3.1134   -0.3928    0.0000 C   0  0  0  0  0  0  0  0  0  0  0  0
    4.4175   -1.1339    0.0000 C   0  0  0  0  0  0  0  0  0  0  0  0
    5.7114   -0.3751    0.0000 C   0  0  0  0  0  0  0  0  0  0  0  0
    5.7012    1.1249    0.0000 C   0  0  0  0  0  0  0  0  0  0  0  0
    4.3971    1.8660    0.0000 C   0  0  0  0  0  0  0  0  0  0  0  0
    3.1032    1.1072    0.0000 C   0  0  0  0  0  0  0  0  0  0  0  0
    1.9241    2.0344    0.0000 N   0  0  0  0  0  0  0  0  0  0  0  0
    0.4640    1.6907    0.0000 C   0  0  0  0  0  0  0  0  0  0  0  0
   -0.4792    2.8571    0.0000 O   0  0  0  0  0  0  0  0  0  0  0  0
   -0.1776    0.3349    0.0000 C   0  0  0  0  0  0  0  0  0  0  0  0
   -1.6741    0.4368    0.0000 C   0  0  0  0  0  0  0  0  0  0  0  0
  1  2  1  0
  2  3  1  0
  3  4  1  0
  4  5  2  0
  4  6  1  0
  6  7  1  0
  7  8  1  0
  8  9  1  0
  9 10  1  0
 10 11  2  0
 10 12  1  0
 12 13  2  0
 13 14  1  0
 14 15  2  0
 15 16  1  0
 16 17  2  0
 17 18  1  0
 18 19  1  0
 19 20  2  0
 19 21  1  0
 21 22  1  1
 22  6  1  0
 21  9  1  0
 17 12  1  0
M  END
