
     RDKit          2D

 22 22  0  0  0  0  0  0  0  0999 V2000
    7.6106   -2.4005    0.0000 C   0  0  0  0  0  0  0  0  0  0  0  0
    7.6535   -0.9011    0.0000 O   0  0  0  0  0  0  0  0  0  0  0  0
    6.3764   -0.1142    0.0000 C   0  0  0  0  0  0  0  0  0  0  0  0
    5.0565   -0.8268    0.0000 C   0  0  0  0  0  0  0  0  0  0  0  0
    3.7794   -0.0399    0.0000 C   0  0  0  0  0  0  0  0  0  0  0  0
    2.4595   -0.7525    0.0000 C   0  0  0  0  0  0  0  0  0  0  0  0
    1.1824    0.0344    0.0000 C   0  0  0  0  0  0  0  0  0  0  0  0
   -0.1375   -0.6782    0.0000 C   0  0  0  0  0  0  0  0  0  0  0  0
   -0.1804   -2.1775    0.0000 O   0  0  0  0  0  0  0  0  0  0  0  0
   -1.4146    0.1087    0.0000 N   0  0  0  0  0  0  0  0  0  0  0  0
   -2.7346   -0.6039    0.0000 C   0  0  0  0  0  0  0  0  0  0  0  0
   -4.0116    0.1830    0.0000 C   0  0  0  0  0  0  0  0  0  0  0  0
   -5.3316   -0.5295    0.0000 C   0  0  0  0  0  0  0  0  0  0  0  0
   -6.6086    0.2573    0.0000 C   0  0  0  0  0  0  0  0  0  0  0  0
   -7.9286   -0.4552    0.0000 N   0  0  0  0  0  0  0  0  0  0  0  0
   -9.2056    0.3316    0.0000 C   0  0  0  0  0  0  0  0  0  0  0  0
   -9.1627    1.8310    0.0000 N   0  0  0  0  0  0  0  0  0  0  0  0
  -10.5256   -0.3809    0.0000 N   0  0  0  0  0  0  0  0  0  0  0  0
    3.8223    1.4595    0.0000 C   0  0  0  0  0  0  0  0  0  0  0  0
    5.1423    2.1720    0.0000 C   0  0  0  0  0  0  0  0  0  0  0  0
    6.4193    1.3851    0.0000 C   0  0  0  0  0  0  0  0  0  0  0  0
    7.7393    2.0977    0.0000 O   0  0  0  0  0  0  0  0  0  0  0  0
  1  2  1  0
  2  3  1  0
  3  4  2  0
  4  5  1  0
  5  6  1  0
  6  7  2  3
  7  8  1  0
  8  9  2  0
  8 10  1  0
 10 11  1  0
 11 12  1  0
 12 13  1  0
 13 14  1  0
 14 15  1  0
 15 16  1  0
 16 17  2  0
 16 18  1  0
  5 19  2  0
 19 20  1  0
 20 21  2  0
 21 22  1  0
 21  3  1  0
M  END
