
     RDKit          2D

 22 24  0  0  0  0  0  0  0  0999 V2000
   -6.9316   -0.3962    0.0000 C   0  0  0  0  0  0  0  0  0  0  0  0
   -5.5262   -0.9203    0.0000 S   0  0  0  0  0  0  0  0  0  0  0  0
   -5.0020    0.4851    0.0000 O   0  0  0  0  0  0  0  0  0  0  0  0
   -6.0503   -2.3258    0.0000 O   0  0  0  0  0  0  0  0  0  0  0  0
   -4.1207   -1.4445    0.0000 O   0  0  0  0  0  0  0  0  0  0  0  0
   -2.9641   -0.4894    0.0000 C   0  0  0  0  0  0  0  0  0  0  0  0
   -3.2129    0.9898    0.0000 C   0  0  0  0  0  0  0  0  0  0  0  0
   -2.0562    1.9449    0.0000 C   0  0  0  0  0  0  0  0  0  0  0  0
   -0.6508    1.4208    0.0000 C   0  0  0  0  0  0  0  0  0  0  0  0
    0.6792    2.1145    0.0000 C   0  0  0  0  0  0  0  0  0  0  0  0
    0.8997    3.5982    0.0000 O   0  0  0  0  0  0  0  0  0  0  0  0
    1.7499    1.0640    0.0000 C   0  0  0  0  0  0  0  0  0  0  0  0
    3.2291    1.3128    0.0000 C   0  0  0  0  0  0  0  0  0  0  0  0
    4.1842    0.1561    0.0000 C   0  0  0  0  0  0  0  0  0  0  0  0
    3.6601   -1.2493    0.0000 C   0  0  0  0  0  0  0  0  0  0  0  0
    4.6151   -2.4059    0.0000 C   0  0  0  0  0  0  0  0  0  0  0  0
    6.0944   -2.1572    0.0000 N   0  0  0  0  0  0  0  0  0  0  0  0
    6.6185   -0.7517    0.0000 C   0  0  0  0  0  0  0  0  0  0  0  0
    5.6634    0.4049    0.0000 C   0  0  0  0  0  0  0  0  0  0  0  0
    1.0817   -0.2790    0.0000 O   0  0  0  0  0  0  0  0  0  0  0  0
   -0.4020   -0.0585    0.0000 C   0  0  0  0  0  0  0  0  0  0  0  0
   -1.5586   -1.0135    0.0000 C   0  0  0  0  0  0  0  0  0  0  0  0
  1  2  1  0
  2  3  2  0
  2  4  2  0
  2  5  1  0
  5  6  1  0
  6  7  2  0
  7  8  1  0
  8  9  2  0
  9 10  1  0
 10 11  2  0
 10 12  1  0
 12 13  2  3
 13 14  1  0
 14 15  2  0
 15 16  1  0
 16 17  2  0
 17 18  1  0
 18 19  2  0
 12 20  1  0
 20 21  1  0
 21 22  2  0
 22  6  1  0
 21  9  1  0
 19 14  1  0
M  END
