
     RDKit          2D

 22 25  0  0  0  0  0  0  0  0999 V2000
   -2.8428   -2.1369    0.0000 C   0  0  0  0  0  0  0  0  0  0  0  0
   -3.1679   -0.6725    0.0000 C   0  0  0  0  0  0  0  0  0  0  0  0
   -4.5536   -1.2470    0.0000 C   0  0  0  0  0  0  0  0  0  0  0  0
   -5.7439   -0.3342    0.0000 O   0  0  0  0  0  0  0  0  0  0  0  0
   -3.9743    0.5923    0.0000 C   0  0  0  0  0  0  0  0  0  0  0  0
   -3.2821    1.9230    0.0000 C   0  0  0  0  0  0  0  0  0  0  0  0
   -1.7835    1.9889    0.0000 C   0  0  0  0  0  0  0  0  0  0  0  0
   -0.9772    0.7241    0.0000 C   0  0  0  0  0  0  0  0  0  0  0  0
   -0.2850    2.0548    0.0000 C   0  0  0  0  0  0  0  0  0  0  0  0
   -1.6694   -0.6066    0.0000 C   0  0  0  0  0  0  0  0  0  0  0  0
   -0.8630   -1.8715    0.0000 C   0  0  0  0  0  0  0  0  0  0  0  0
    0.6355   -1.8056    0.0000 C   0  0  0  0  0  0  0  0  0  0  0  0
    1.3277   -0.4748    0.0000 C   0  0  0  0  0  0  0  0  0  0  0  0
    2.8263   -0.4089    0.0000 C   0  0  0  0  0  0  0  0  0  0  0  0
    3.5185    0.9218    0.0000 C   0  0  0  0  0  0  0  0  0  0  0  0
    2.7121    2.1866    0.0000 C   0  0  0  0  0  0  0  0  0  0  0  0
    1.2136    2.1207    0.0000 C   0  0  0  0  0  0  0  0  0  0  0  0
    0.5214    0.7900    0.0000 C   0  0  0  0  0  0  0  0  0  0  0  0
    3.8945   -0.5303    0.0000 C   0  0  0  0  0  0  0  0  0  0  0  0
    5.2993   -0.0046    0.0000 C   0  0  0  0  0  0  0  0  0  0  0  0
    4.5642   -1.8725    0.0000 O   0  0  0  0  0  0  0  0  0  0  0  0
    2.6297   -1.3367    0.0000 C   0  0  0  0  0  0  0  0  0  0  0  0
  2  1  1  6
  2  3  1  0
  3  4  1  0
  2  5  1  0
  5  6  1  0
  6  7  1  0
  7  8  1  0
  8  9  1  1
  8 10  1  0
 10 11  1  6
 11 12  1  0
 13 12  1  6
 13 14  1  0
 14 15  1  0
 15 16  1  1
 16 17  1  0
 18 17  1  1
 15 19  1  0
 19 20  1  1
 19 21  1  0
 19 22  1  0
 10  2  1  0
 18 13  1  0
 18  8  1  0
 22 13  1  0
M  END
