
     RDKit          2D

 22 23  0  0  0  0  0  0  0  0999 V2000
   -8.5049   -0.1420    0.0000 C   0  0  0  0  0  0  0  0  0  0  0  0
   -7.3348   -1.0806    0.0000 O   0  0  0  0  0  0  0  0  0  0  0  0
   -5.9369   -0.5365    0.0000 C   0  0  0  0  0  0  0  0  0  0  0  0
   -5.7092    0.9461    0.0000 C   0  0  0  0  0  0  0  0  0  0  0  0
   -4.3113    1.4901    0.0000 C   0  0  0  0  0  0  0  0  0  0  0  0
   -3.1412    0.5516    0.0000 C   0  0  0  0  0  0  0  0  0  0  0  0
   -1.7434    1.0956    0.0000 C   0  0  0  0  0  0  0  0  0  0  0  0
   -0.5733    0.1571    0.0000 N   0  0  0  0  0  0  0  0  0  0  0  0
    0.8246    0.7011    0.0000 C   0  0  0  0  0  0  0  0  0  0  0  0
    1.0524    2.1837    0.0000 O   0  0  0  0  0  0  0  0  0  0  0  0
    1.9947   -0.2375    0.0000 C   0  0  0  0  0  0  0  0  0  0  0  0
    3.3925    0.3066    0.0000 C   0  0  0  0  0  0  0  0  0  0  0  0
    3.6203    1.7892    0.0000 C   0  0  0  0  0  0  0  0  0  0  0  0
    5.0182    2.3333    0.0000 C   0  0  0  0  0  0  0  0  0  0  0  0
    6.1883    1.3947    0.0000 C   0  0  0  0  0  0  0  0  0  0  0  0
    5.9605   -0.0879    0.0000 C   0  0  0  0  0  0  0  0  0  0  0  0
    4.5626   -0.6320    0.0000 C   0  0  0  0  0  0  0  0  0  0  0  0
    4.3349   -2.1146    0.0000 N   0  0  0  0  0  0  0  0  0  0  0  0
    2.9370   -2.6586    0.0000 O   0  0  0  0  0  0  0  0  0  0  0  0
    5.5050   -3.0531    0.0000 O   0  0  0  0  0  0  0  0  0  0  0  0
   -3.3690   -0.9311    0.0000 C   0  0  0  0  0  0  0  0  0  0  0  0
   -4.7668   -1.4751    0.0000 C   0  0  0  0  0  0  0  0  0  0  0  0
  1  2  1  0
  2  3  1  0
  3  4  2  0
  4  5  1  0
  5  6  2  0
  6  7  1  0
  7  8  1  0
  8  9  1  0
  9 10  2  0
  9 11  1  0
 11 12  1  0
 12 13  2  0
 13 14  1  0
 14 15  2  0
 15 16  1  0
 16 17  2  0
 17 18  1  0
 18 19  2  0
 18 20  1  0
  6 21  1  0
 21 22  2  0
 22  3  1  0
 17 12  1  0
M  CHG  2  18   1  20  -1
M  END
