
     RDKit          2D

 22 23  0  0  0  0  0  0  0  0999 V2000
   -8.5954    1.2186    0.0000 C   0  0  0  0  0  0  0  0  0  0  0  0
   -7.1063    1.3990    0.0000 C   0  0  0  0  0  0  0  0  0  0  0  0
   -6.2055    0.1997    0.0000 C   0  0  0  0  0  0  0  0  0  0  0  0
   -4.7163    0.3801    0.0000 C   0  0  0  0  0  0  0  0  0  0  0  0
   -3.8155   -0.8193    0.0000 C   0  0  0  0  0  0  0  0  0  0  0  0
   -2.3264   -0.6388    0.0000 C   0  0  0  0  0  0  0  0  0  0  0  0
   -1.7381    0.7410    0.0000 C   0  0  0  0  0  0  0  0  0  0  0  0
   -0.2490    0.9215    0.0000 C   0  0  0  0  0  0  0  0  0  0  0  0
    0.3392    2.3013    0.0000 O   0  0  0  0  0  0  0  0  0  0  0  0
    0.6518   -0.2779    0.0000 C   0  0  0  0  0  0  0  0  0  0  0  0
    2.1409   -0.0974    0.0000 C   0  0  0  0  0  0  0  0  0  0  0  0
    2.7292    1.2824    0.0000 C   0  0  0  0  0  0  0  0  0  0  0  0
    4.2183    1.4629    0.0000 C   0  0  0  0  0  0  0  0  0  0  0  0
    5.1191    0.2635    0.0000 O   0  0  0  0  0  0  0  0  0  0  0  0
    4.8066    2.8427    0.0000 O   0  0  0  0  0  0  0  0  0  0  0  0
    6.2957    3.0231    0.0000 C   0  0  0  0  0  0  0  0  0  0  0  0
    3.0417   -1.2968    0.0000 C   0  0  0  0  0  0  0  0  0  0  0  0
    2.4535   -2.6766    0.0000 C   0  0  0  0  0  0  0  0  0  0  0  0
    3.3543   -3.8760    0.0000 O   0  0  0  0  0  0  0  0  0  0  0  0
    0.9644   -2.8571    0.0000 C   0  0  0  0  0  0  0  0  0  0  0  0
    0.0635   -1.6577    0.0000 C   0  0  0  0  0  0  0  0  0  0  0  0
   -1.4256   -1.8382    0.0000 O   0  0  0  0  0  0  0  0  0  0  0  0
  1  2  1  0
  2  3  1  0
  3  4  1  0
  4  5  1  0
  5  6  1  0
  6  7  2  0
  7  8  1  0
  8  9  2  0
  8 10  1  0
 10 11  2  0
 11 12  1  0
 12 13  1  0
 13 14  2  0
 13 15  1  0
 15 16  1  0
 11 17  1  0
 17 18  2  0
 18 19  1  0
 18 20  1  0
 20 21  2  0
 21 22  1  0
 22  6  1  0
 21 10  1  0
M  END
