
     RDKit          2D

 22 22  0  0  0  0  0  0  0  0999 V2000
   -5.9931    2.3102    0.0000 C   0  0  0  0  0  0  0  0  0  0  0  0
   -4.8371    1.3543    0.0000 N   0  0  0  0  0  0  0  0  0  0  0  0
   -5.0869   -0.1248    0.0000 C   0  0  0  0  0  0  0  0  0  0  0  0
   -6.4927   -0.6480    0.0000 C   0  0  0  0  0  0  0  0  0  0  0  0
   -7.6487    0.3079    0.0000 N   0  0  0  0  0  0  0  0  0  0  0  0
   -7.3989    1.7870    0.0000 O   0  0  0  0  0  0  0  0  0  0  0  0
   -9.0545   -0.2153    0.0000 O   0  0  0  0  0  0  0  0  0  0  0  0
   -3.9309   -1.0806    0.0000 N   0  0  0  0  0  0  0  0  0  0  0  0
   -2.5251   -0.5574    0.0000 C   0  0  0  0  0  0  0  0  0  0  0  0
   -1.3691   -1.5133    0.0000 C   0  0  0  0  0  0  0  0  0  0  0  0
    0.0367   -0.9901    0.0000 S   0  0  0  0  0  0  0  0  0  0  0  0
    1.1927   -1.9460    0.0000 C   0  0  0  0  0  0  0  0  0  0  0  0
    2.5985   -1.4228    0.0000 C   0  0  0  0  0  0  0  0  0  0  0  0
    3.8481   -2.2526    0.0000 C   0  0  0  0  0  0  0  0  0  0  0  0
    5.0234   -1.3206    0.0000 C   0  0  0  0  0  0  0  0  0  0  0  0
    4.5002    0.0852    0.0000 C   0  0  0  0  0  0  0  0  0  0  0  0
    5.3300    1.3348    0.0000 C   0  0  0  0  0  0  0  0  0  0  0  0
    6.8271    1.2410    0.0000 N   0  0  0  0  0  0  0  0  0  0  0  0
    6.7332   -0.2561    0.0000 C   0  0  0  0  0  0  0  0  0  0  0  0
    6.9209    2.7380    0.0000 C   0  0  0  0  0  0  0  0  0  0  0  0
    8.3241    1.1471    0.0000 O   0  0  0  0  0  0  0  0  0  0  0  0
    3.0016    0.0221    0.0000 O   0  0  0  0  0  0  0  0  0  0  0  0
  1  2  1  0
  2  3  1  0
  3  4  2  3
  4  5  1  0
  5  6  2  0
  5  7  1  0
  3  8  1  0
  8  9  1  0
  9 10  1  0
 10 11  1  0
 11 12  1  0
 12 13  1  0
 13 14  2  0
 14 15  1  0
 15 16  2  0
 16 17  1  0
 17 18  1  0
 18 19  1  0
 18 20  1  0
 18 21  1  0
 16 22  1  0
 22 13  1  0
M  CHG  4   5   1   7  -1  18   1  21  -1
M  END
