
     RDKit          2D

 22 25  0  0  0  0  0  0  0  0999 V2000
   -5.4382   -1.7087    0.0000 C   0  0  0  0  0  0  0  0  0  0  0  0
   -3.9622   -1.9759    0.0000 C   0  0  0  0  0  0  0  0  0  0  0  0
   -3.4556   -3.3878    0.0000 O   0  0  0  0  0  0  0  0  0  0  0  0
   -2.9928   -0.8313    0.0000 C   0  0  0  0  0  0  0  0  0  0  0  0
   -3.4993    0.5806    0.0000 C   0  0  0  0  0  0  0  0  0  0  0  0
   -4.9753    0.8478    0.0000 O   0  0  0  0  0  0  0  0  0  0  0  0
   -2.5299    1.7252    0.0000 C   0  0  0  0  0  0  0  0  0  0  0  0
   -3.0364    3.1371    0.0000 O   0  0  0  0  0  0  0  0  0  0  0  0
   -1.0539    1.4580    0.0000 N   0  0  0  0  0  0  0  0  0  0  0  0
   -0.0844    2.6026    0.0000 C   0  0  0  0  0  0  0  0  0  0  0  0
    1.3916    2.3353    0.0000 C   0  0  0  0  0  0  0  0  0  0  0  0
    1.8981    0.9235    0.0000 C   0  0  0  0  0  0  0  0  0  0  0  0
    0.9287   -0.2212    0.0000 C   0  0  0  0  0  0  0  0  0  0  0  0
    1.7177   -1.4969    0.0000 N   0  0  0  0  0  0  0  0  0  0  0  0
    3.1748   -1.1407    0.0000 C   0  0  0  0  0  0  0  0  0  0  0  0
    4.4145   -1.9851    0.0000 C   0  0  0  0  0  0  0  0  0  0  0  0
    5.7657   -1.3338    0.0000 C   0  0  0  0  0  0  0  0  0  0  0  0
    5.8772    0.1621    0.0000 C   0  0  0  0  0  0  0  0  0  0  0  0
    4.6375    1.0066    0.0000 C   0  0  0  0  0  0  0  0  0  0  0  0
    3.2863    0.3552    0.0000 C   0  0  0  0  0  0  0  0  0  0  0  0
   -0.5473    0.0461    0.0000 C   0  0  0  0  0  0  0  0  0  0  0  0
   -1.5168   -1.0986    0.0000 C   0  0  0  0  0  0  0  0  0  0  0  0
  2  1  1  6
  2  3  1  0
  2  4  1  0
  4  5  2  0
  5  6  1  0
  5  7  1  0
  7  8  2  0
  7  9  1  0
  9 10  1  0
 10 11  1  0
 11 12  1  0
 12 13  2  0
 13 14  1  0
 14 15  1  0
 15 16  2  0
 16 17  1  0
 17 18  2  0
 18 19  1  0
 19 20  2  0
 13 21  1  0
 21 22  2  0
 22  4  1  0
 21  9  1  0
 20 12  1  0
 20 15  1  0
M  END
