
     RDKit          2D

 22 23  0  0  0  0  0  0  0  0999 V2000
    2.1662   -3.5733    0.0000 C   0  0  0  0  0  0  0  0  0  0  0  0
    2.3547   -2.0852    0.0000 O   0  0  0  0  0  0  0  0  0  0  0  0
    1.1602   -1.1779    0.0000 C   0  0  0  0  0  0  0  0  0  0  0  0
   -0.2228   -1.7587    0.0000 C   0  0  0  0  0  0  0  0  0  0  0  0
   -1.4173   -0.8514    0.0000 C   0  0  0  0  0  0  0  0  0  0  0  0
   -1.2288    0.6367    0.0000 C   0  0  0  0  0  0  0  0  0  0  0  0
   -2.4233    1.5440    0.0000 C   0  0  0  0  0  0  0  0  0  0  0  0
   -2.2348    3.0321    0.0000 O   0  0  0  0  0  0  0  0  0  0  0  0
   -3.8062    0.9632    0.0000 C   0  0  0  0  0  0  0  0  0  0  0  0
   -5.0007    1.8705    0.0000 O   0  0  0  0  0  0  0  0  0  0  0  0
   -3.9947   -0.5249    0.0000 C   0  0  0  0  0  0  0  0  0  0  0  0
   -5.3777   -1.1057    0.0000 O   0  0  0  0  0  0  0  0  0  0  0  0
   -2.8002   -1.4322    0.0000 C   0  0  0  0  0  0  0  0  0  0  0  0
   -2.9887   -2.9203    0.0000 O   0  0  0  0  0  0  0  0  0  0  0  0
    0.1542    1.2175    0.0000 C   0  0  0  0  0  0  0  0  0  0  0  0
    0.3427    2.7057    0.0000 O   0  0  0  0  0  0  0  0  0  0  0  0
    1.3487    0.3102    0.0000 C   0  0  0  0  0  0  0  0  0  0  0  0
    2.7317    0.8911    0.0000 C   0  0  0  0  0  0  0  0  0  0  0  0
    3.9262   -0.0162    0.0000 C   0  0  0  0  0  0  0  0  0  0  0  0
    5.3092    0.5646    0.0000 C   0  0  0  0  0  0  0  0  0  0  0  0
    6.5037   -0.3427    0.0000 C   0  0  0  0  0  0  0  0  0  0  0  0
    5.4977    2.0527    0.0000 O   0  0  0  0  0  0  0  0  0  0  0  0
  1  2  1  0
  2  3  1  0
  3  4  2  0
  4  5  1  0
  5  6  2  0
  6  7  1  0
  7  8  2  0
  7  9  1  0
  9 10  1  0
  9 11  2  0
 11 12  1  0
 11 13  1  0
 13 14  2  0
  6 15  1  0
 15 16  1  0
 15 17  2  0
 17 18  1  0
 18 19  1  0
 19 20  1  0
 20 21  1  1
 20 22  1  0
 17  3  1  0
 13  5  1  0
M  END
