
     RDKit          2D

 22 22  0  0  0  0  0  0  0  0999 V2000
   -0.3258   -4.8873    0.0000 C   0  0  0  0  0  0  0  0  0  0  0  0
    0.7582   -3.8505    0.0000 C   0  0  0  0  0  0  0  0  0  0  0  0
    2.1981   -4.2709    0.0000 O   0  0  0  0  0  0  0  0  0  0  0  0
    0.4023   -2.3934    0.0000 C   0  0  0  0  0  0  0  0  0  0  0  0
   -1.0376   -1.9730    0.0000 C   0  0  0  0  0  0  0  0  0  0  0  0
   -1.3936   -0.5159    0.0000 C   0  0  0  0  0  0  0  0  0  0  0  0
   -2.8335   -0.0955    0.0000 C   0  0  0  0  0  0  0  0  0  0  0  0
   -3.9174   -1.1324    0.0000 O   0  0  0  0  0  0  0  0  0  0  0  0
   -3.1894    1.3616    0.0000 C   0  0  0  0  0  0  0  0  0  0  0  0
   -4.6293    1.7820    0.0000 C   0  0  0  0  0  0  0  0  0  0  0  0
   -4.9852    3.2391    0.0000 C   0  0  0  0  0  0  0  0  0  0  0  0
   -5.7133    0.7451    0.0000 C   0  0  0  0  0  0  0  0  0  0  0  0
   -0.3096    0.5210    0.0000 C   0  0  0  0  0  0  0  0  0  0  0  0
   -0.6655    1.9781    0.0000 O   0  0  0  0  0  0  0  0  0  0  0  0
    1.1303    0.1006    0.0000 C   0  0  0  0  0  0  0  0  0  0  0  0
    2.2143    1.1375    0.0000 C   0  0  0  0  0  0  0  0  0  0  0  0
    1.8583    2.5946    0.0000 O   0  0  0  0  0  0  0  0  0  0  0  0
    3.6542    0.7171    0.0000 C   0  0  0  0  0  0  0  0  0  0  0  0
    4.7381    1.7539    0.0000 C   0  0  0  0  0  0  0  0  0  0  0  0
    6.1780    1.3336    0.0000 C   0  0  0  0  0  0  0  0  0  0  0  0
    4.3822    3.2111    0.0000 C   0  0  0  0  0  0  0  0  0  0  0  0
    1.4862   -1.3565    0.0000 C   0  0  0  0  0  0  0  0  0  0  0  0
  1  2  1  0
  2  3  2  0
  2  4  1  0
  4  5  2  0
  5  6  1  0
  6  7  1  0
  7  8  2  0
  7  9  1  0
  9 10  1  0
 10 11  1  0
 10 12  1  0
  6 13  2  0
 13 14  1  0
 13 15  1  0
 15 16  1  0
 16 17  2  0
 16 18  1  0
 18 19  1  0
 19 20  1  0
 19 21  1  0
 15 22  2  0
 22  4  1  0
M  END
