
     RDKit          2D

 22 25  0  0  0  0  0  0  0  0999 V2000
    0.8161   -1.7908    0.0000 C   0  0  0  0  0  0  0  0  0  0  0  0
    1.5942   -0.5084    0.0000 C   0  0  0  0  0  0  0  0  0  0  0  0
    2.3157   -1.8235    0.0000 C   0  0  0  0  0  0  0  0  0  0  0  0
    3.8154   -1.8563    0.0000 C   0  0  0  0  0  0  0  0  0  0  0  0
    4.5935   -0.5739    0.0000 C   0  0  0  0  0  0  0  0  0  0  0  0
    6.0932   -0.6066    0.0000 O   0  0  0  0  0  0  0  0  0  0  0  0
    3.8720    0.7412    0.0000 C   0  0  0  0  0  0  0  0  0  0  0  0
    2.3724    0.7739    0.0000 C   0  0  0  0  0  0  0  0  0  0  0  0
    1.6509    2.0890    0.0000 C   0  0  0  0  0  0  0  0  0  0  0  0
    2.4290    3.3714    0.0000 O   0  0  0  0  0  0  0  0  0  0  0  0
    0.1512    2.1217    0.0000 C   0  0  0  0  0  0  0  0  0  0  0  0
   -0.6269    0.8394    0.0000 C   0  0  0  0  0  0  0  0  0  0  0  0
    0.0946   -0.4757    0.0000 C   0  0  0  0  0  0  0  0  0  0  0  0
   -0.6836   -1.7581    0.0000 C   0  0  0  0  0  0  0  0  0  0  0  0
   -2.1832   -1.7254    0.0000 C   0  0  0  0  0  0  0  0  0  0  0  0
   -2.9047   -0.4103    0.0000 C   0  0  0  0  0  0  0  0  0  0  0  0
   -3.8126   -1.6043    0.0000 C   0  0  0  0  0  0  0  0  0  0  0  0
   -2.1266    0.8721    0.0000 C   0  0  0  0  0  0  0  0  0  0  0  0
   -3.1057    2.0084    0.0000 C   0  0  0  0  0  0  0  0  0  0  0  0
   -4.4890    1.4284    0.0000 C   0  0  0  0  0  0  0  0  0  0  0  0
   -4.3648   -0.0665    0.0000 C   0  0  0  0  0  0  0  0  0  0  0  0
   -5.5011   -1.0456    0.0000 O   0  0  0  0  0  0  0  0  0  0  0  0
  2  1  1  1
  2  3  1  0
  3  4  1  0
  4  5  1  0
  5  6  1  1
  5  7  1  0
  8  7  1  1
  8  9  1  0
  9 10  1  1
  9 11  1  0
 12 11  1  1
 12 13  1  0
 13 14  1  6
 14 15  1  0
 15 16  1  0
 16 17  1  1
 16 18  1  0
 18 19  1  6
 19 20  1  0
 20 21  1  0
 21 22  1  1
  8  2  1  0
 18 12  1  0
 13  2  1  0
 21 16  1  0
M  END
