
     RDKit          2D

 22 23  0  0  0  0  0  0  0  0999 V2000
   -5.6788   -2.8441    0.0000 C   0  0  0  0  0  0  0  0  0  0  0  0
   -4.1801   -2.7798    0.0000 O   0  0  0  0  0  0  0  0  0  0  0  0
   -3.4865   -1.4498    0.0000 C   0  0  0  0  0  0  0  0  0  0  0  0
   -4.2915   -0.1841    0.0000 C   0  0  0  0  0  0  0  0  0  0  0  0
   -3.5979    1.1459    0.0000 C   0  0  0  0  0  0  0  0  0  0  0  0
   -4.4029    2.4116    0.0000 O   0  0  0  0  0  0  0  0  0  0  0  0
   -2.0993    1.2102    0.0000 O   0  0  0  0  0  0  0  0  0  0  0  0
   -1.2943   -0.0555    0.0000 C   0  0  0  0  0  0  0  0  0  0  0  0
    0.2044    0.0088    0.0000 C   0  0  0  0  0  0  0  0  0  0  0  0
    1.0094   -1.2569    0.0000 C   0  0  0  0  0  0  0  0  0  0  0  0
    2.5080   -1.1926    0.0000 C   0  0  0  0  0  0  0  0  0  0  0  0
    3.3130   -2.4583    0.0000 C   0  0  0  0  0  0  0  0  0  0  0  0
    4.8116   -2.3940    0.0000 C   0  0  0  0  0  0  0  0  0  0  0  0
    5.5052   -1.0640    0.0000 C   0  0  0  0  0  0  0  0  0  0  0  0
    4.7002    0.2017    0.0000 C   0  0  0  0  0  0  0  0  0  0  0  0
    5.3938    1.5317    0.0000 Cl  0  0  0  0  0  0  0  0  0  0  0  0
    3.2016    0.1374    0.0000 C   0  0  0  0  0  0  0  0  0  0  0  0
    0.8980    1.3388    0.0000 N   0  0  0  0  0  0  0  0  0  0  0  0
    0.0930    2.6045    0.0000 C   0  0  0  0  0  0  0  0  0  0  0  0
    0.7866    3.9344    0.0000 C   0  0  0  0  0  0  0  0  0  0  0  0
   -1.4056    2.5402    0.0000 O   0  0  0  0  0  0  0  0  0  0  0  0
   -1.9879   -1.3855    0.0000 C   0  0  0  0  0  0  0  0  0  0  0  0
  1  2  1  0
  2  3  1  0
  3  4  2  0
  4  5  1  0
  5  6  2  0
  5  7  1  0
  7  8  1  0
  8  9  1  0
  9 10  1  1
 10 11  1  0
 11 12  2  0
 12 13  1  0
 13 14  2  0
 14 15  1  0
 15 16  1  0
 15 17  2  0
  9 18  1  0
 18 19  1  0
 19 20  1  0
 19 21  2  0
  8 22  2  0
 22  3  1  0
 17 11  1  0
M  END
