
     RDKit          2D

 22 25  0  0  0  0  0  0  0  0999 V2000
   -0.5827    2.0958    0.0000 C   0  0  0  0  0  0  0  0  0  0  0  0
    1.2545    0.8919    0.0000 C   0  0  0  0  0  0  0  0  0  0  0  0
    1.9363    1.3104    0.0000 C   0  0  0  0  0  0  0  0  0  0  0  0
    1.8772    3.5096    0.0000 O   0  0  0  0  0  0  0  0  0  0  0  0
    2.6396    0.9291    0.0000 C   0  0  0  0  0  0  0  0  0  0  0  0
    2.6611    0.1294    0.0000 C   0  0  0  0  0  0  0  0  0  0  0  0
    4.5952   -0.9190    0.0000 O   0  0  0  0  0  0  0  0  0  0  0  0
    1.9980   -0.9888    0.0000 C   0  0  0  0  0  0  0  0  0  0  0  0
    3.2348   -1.8376    0.0000 C   0  0  0  0  0  0  0  0  0  0  0  0
    1.7257   -2.4638    0.0000 C   0  0  0  0  0  0  0  0  0  0  0  0
    0.2386   -2.6606    0.0000 C   0  0  0  0  0  0  0  0  0  0  0  0
   -0.4080   -1.3072    0.0000 C   0  0  0  0  0  0  0  0  0  0  0  0
   -1.7267   -0.5923    0.0000 C   0  0  0  0  0  0  0  0  0  0  0  0
   -3.2138   -0.7891    0.0000 C   0  0  0  0  0  0  0  0  0  0  0  0
   -2.8626   -2.2474    0.0000 C   0  0  0  0  0  0  0  0  0  0  0  0
   -4.6274   -1.2908    0.0000 C   0  0  0  0  0  0  0  0  0  0  0  0
   -3.8604    0.5643    0.0000 C   0  0  0  0  0  0  0  0  0  0  0  0
   -2.7731    1.5976    0.0000 C   0  0  0  0  0  0  0  0  0  0  0  0
   -1.4544    0.8827    0.0000 C   0  0  0  0  0  0  0  0  0  0  0  0
   -1.3638    2.3800    0.0000 C   0  0  0  0  0  0  0  0  0  0  0  0
    0.0327    1.0795    0.0000 C   0  0  0  0  0  0  0  0  0  0  0  0
    0.6793   -0.2739    0.0000 C   0  0  0  0  0  0  0  0  0  0  0  0
  2  1  1  1
  2  3  1  0
  3  4  1  6
  3  5  1  0
  5  6  1  0
  6  7  1  6
  6  8  1  0
  8  9  1  1
  8 10  1  0
 10 11  1  0
 12 11  1  1
 12 13  1  0
 13 14  1  6
 14 15  1  0
 14 16  1  0
 14 17  1  0
 17 18  1  0
 18 19  1  0
 19 20  1  1
 19 21  1  0
 22 21  1  1
 22  2  1  0
 22  8  1  0
 22 12  1  0
 19 13  1  0
M  END
