
     RDKit          2D

 22 25  0  0  0  0  0  0  0  0999 V2000
   -6.2585   -2.1434    0.0000 C   0  0  0  0  0  0  0  0  0  0  0  0
   -4.7645   -2.2767    0.0000 C   0  0  0  0  0  0  0  0  0  0  0  0
   -3.9020   -1.0495    0.0000 C   0  0  0  0  0  0  0  0  0  0  0  0
   -2.4079   -1.1828    0.0000 C   0  0  0  0  0  0  0  0  0  0  0  0
   -1.5454    0.0444    0.0000 C   0  0  0  0  0  0  0  0  0  0  0  0
   -0.0513   -0.0889    0.0000 C   0  0  0  0  0  0  0  0  0  0  0  0
    0.8112    1.1383    0.0000 N   0  0  0  0  0  0  0  0  0  0  0  0
    0.1796    2.4989    0.0000 C   0  0  0  0  0  0  0  0  0  0  0  0
   -1.3145    2.6322    0.0000 C   0  0  0  0  0  0  0  0  0  0  0  0
   -1.9460    3.9928    0.0000 C   0  0  0  0  0  0  0  0  0  0  0  0
   -0.6470   -0.5870    0.0000 C   0  0  0  0  0  0  0  0  0  0  0  0
    0.5802   -1.4495    0.0000 N   0  0  0  0  0  0  0  0  0  0  0  0
   -0.9138   -1.3162    0.0000 C   0  0  0  0  0  0  0  0  0  0  0  0
    1.4427   -0.2223    0.0000 C   0  0  0  0  0  0  0  0  0  0  0  0
    2.9368   -0.3556    0.0000 C   0  0  0  0  0  0  0  0  0  0  0  0
    3.5684   -1.7162    0.0000 C   0  0  0  0  0  0  0  0  0  0  0  0
    5.0624   -1.8495    0.0000 C   0  0  0  0  0  0  0  0  0  0  0  0
    5.9249   -0.6223    0.0000 C   0  0  0  0  0  0  0  0  0  0  0  0
    5.2934    0.7383    0.0000 C   0  0  0  0  0  0  0  0  0  0  0  0
    3.7993    0.8716    0.0000 C   0  0  0  0  0  0  0  0  0  0  0  0
   -2.1770    1.4050    0.0000 C   0  0  0  0  0  0  0  0  0  0  0  0
   -3.6710    1.5383    0.0000 O   0  0  0  0  0  0  0  0  0  0  0  0
  1  2  1  0
  2  3  1  0
  3  4  1  0
  5  4  1  1
  5  6  1  0
  6  7  1  0
  7  8  1  0
  8  9  1  0
  9 10  1  6
  9 11  1  0
 12 11  1  6
 12 13  1  0
 12 14  1  0
 14 15  1  6
 15 16  2  0
 16 17  1  0
 17 18  2  0
 18 19  1  0
 19 20  2  0
  9 21  1  0
 21 22  2  0
 13  5  1  0
 20 15  1  0
 21  5  1  0
 14  7  1  0
M  END
