
     RDKit          2D

 22 25  0  0  0  0  0  0  0  0999 V2000
    1.9984    3.2513    0.0000 O   0  0  0  0  0  0  0  0  0  0  0  0
    1.6233    1.7990    0.0000 C   0  0  0  0  0  0  0  0  0  0  0  0
    0.1780    1.3976    0.0000 C   0  0  0  0  0  0  0  0  0  0  0  0
   -0.1971   -0.0547    0.0000 C   0  0  0  0  0  0  0  0  0  0  0  0
    0.8731   -1.1057    0.0000 O   0  0  0  0  0  0  0  0  0  0  0  0
    2.3185   -0.7044    0.0000 C   0  0  0  0  0  0  0  0  0  0  0  0
    3.3887   -1.7554    0.0000 C   0  0  0  0  0  0  0  0  0  0  0  0
    4.8340   -1.3541    0.0000 C   0  0  0  0  0  0  0  0  0  0  0  0
    5.9042   -2.4051    0.0000 O   0  0  0  0  0  0  0  0  0  0  0  0
    5.2091    0.0983    0.0000 C   0  0  0  0  0  0  0  0  0  0  0  0
    4.1388    1.1493    0.0000 C   0  0  0  0  0  0  0  0  0  0  0  0
    2.6935    0.7480    0.0000 C   0  0  0  0  0  0  0  0  0  0  0  0
   -1.6424   -0.4561    0.0000 C   0  0  0  0  0  0  0  0  0  0  0  0
   -2.0175   -1.9084    0.0000 C   0  0  0  0  0  0  0  0  0  0  0  0
   -3.4628   -2.3098    0.0000 C   0  0  0  0  0  0  0  0  0  0  0  0
   -4.5330   -1.2588    0.0000 C   0  0  0  0  0  0  0  0  0  0  0  0
   -5.9783   -1.6601    0.0000 O   0  0  0  0  0  0  0  0  0  0  0  0
   -4.1579    0.1936    0.0000 C   0  0  0  0  0  0  0  0  0  0  0  0
   -5.2282    1.2446    0.0000 O   0  0  0  0  0  0  0  0  0  0  0  0
   -2.7126    0.5949    0.0000 C   0  0  0  0  0  0  0  0  0  0  0  0
   -2.3375    2.0473    0.0000 C   0  0  0  0  0  0  0  0  0  0  0  0
   -0.8922    2.4486    0.0000 O   0  0  0  0  0  0  0  0  0  0  0  0
  1  2  2  0
  2  3  1  0
  3  4  2  0
  4  5  1  0
  5  6  1  0
  6  7  2  0
  7  8  1  0
  8  9  1  0
  8 10  2  0
 10 11  1  0
 11 12  2  0
  4 13  1  0
 13 14  2  0
 14 15  1  0
 15 16  2  0
 16 17  1  0
 16 18  1  0
 18 19  1  0
 18 20  2  0
 20 21  1  0
 21 22  1  0
 12  2  1  0
 20 13  1  0
 22  3  1  0
 12  6  1  0
M  END
