
     RDKit          2D

 22 22  0  0  0  0  0  0  0  0999 V2000
   -3.6223    1.6214    0.0000 C   0  0  0  0  0  0  0  0  0  0  0  0
   -3.9654    0.1612    0.0000 C   0  0  0  0  0  0  0  0  0  0  0  0
   -2.8723   -0.8660    0.0000 C   0  0  0  0  0  0  0  0  0  0  0  0
   -1.4361   -0.4330    0.0000 C   0  0  0  0  0  0  0  0  0  0  0  0
   -1.0931    1.0272    0.0000 C   0  0  0  0  0  0  0  0  0  0  0  0
   -2.1862    2.0544    0.0000 O   0  0  0  0  0  0  0  0  0  0  0  0
    0.3431    1.4602    0.0000 N   0  0  0  0  0  0  0  0  0  0  0  0
    0.6861    2.9205    0.0000 C   0  0  0  0  0  0  0  0  0  0  0  0
    1.4361    0.4330    0.0000 C   0  0  0  0  0  0  0  0  0  0  0  0
    2.8723    0.8660    0.0000 C   0  0  0  0  0  0  0  0  0  0  0  0
    3.9654   -0.1612    0.0000 C   0  0  0  0  0  0  0  0  0  0  0  0
    3.6223   -1.6214    0.0000 C   0  0  0  0  0  0  0  0  0  0  0  0
    5.4015    0.2718    0.0000 C   0  0  0  0  0  0  0  0  0  0  0  0
    6.4946   -0.7554    0.0000 Cl  0  0  0  0  0  0  0  0  0  0  0  0
    5.7446    1.7321    0.0000 Cl  0  0  0  0  0  0  0  0  0  0  0  0
    1.0931   -1.0272    0.0000 C   0  0  0  0  0  0  0  0  0  0  0  0
    2.1862   -2.0544    0.0000 O   0  0  0  0  0  0  0  0  0  0  0  0
   -0.3431   -1.4602    0.0000 N   0  0  0  0  0  0  0  0  0  0  0  0
   -0.6861   -2.9205    0.0000 C   0  0  0  0  0  0  0  0  0  0  0  0
   -5.4015   -0.2718    0.0000 C   0  0  0  0  0  0  0  0  0  0  0  0
   -6.4946    0.7554    0.0000 Cl  0  0  0  0  0  0  0  0  0  0  0  0
   -5.7446   -1.7321    0.0000 Cl  0  0  0  0  0  0  0  0  0  0  0  0
  2  1  1  1
  2  3  1  0
  4  3  1  1
  4  5  1  0
  5  6  2  0
  5  7  1  0
  7  8  1  0
  7  9  1  0
  9 10  1  1
 10 11  1  0
 11 12  1  1
 11 13  1  0
 13 14  1  0
 13 15  1  0
  9 16  1  0
 16 17  2  0
 16 18  1  0
 18 19  1  0
  2 20  1  0
 20 21  1  0
 20 22  1  0
 18  4  1  0
M  END
