
     RDKit          2D

 22 25  0  0  0  0  0  0  0  0999 V2000
    3.6542   -2.8585    0.0000 C   0  0  0  0  0  0  0  0  0  0  0  0
    2.4968   -1.9044    0.0000 C   0  0  0  0  0  0  0  0  0  0  0  0
    2.8542   -0.4476    0.0000 C   0  0  0  0  0  0  0  0  0  0  0  0
    4.0420    0.4685    0.0000 C   0  0  0  0  0  0  0  0  0  0  0  0
    3.1259    1.6562    0.0000 C   0  0  0  0  0  0  0  0  0  0  0  0
    3.3180    3.1439    0.0000 O   0  0  0  0  0  0  0  0  0  0  0  0
    1.9381    0.7401    0.0000 C   0  0  0  0  0  0  0  0  0  0  0  0
    1.4658    2.1638    0.0000 C   0  0  0  0  0  0  0  0  0  0  0  0
    0.4383    0.7645    0.0000 C   0  0  0  0  0  0  0  0  0  0  0  0
   -0.3676    2.0295    0.0000 C   0  0  0  0  0  0  0  0  0  0  0  0
   -1.8198    1.6540    0.0000 C   0  0  0  0  0  0  0  0  0  0  0  0
   -3.1768    0.9923    0.0000 C   0  0  0  0  0  0  0  0  0  0  0  0
   -4.5073    1.6849    0.0000 O   0  0  0  0  0  0  0  0  0  0  0  0
   -3.1114   -0.5063    0.0000 C   0  0  0  0  0  0  0  0  0  0  0  0
   -1.7809   -1.1989    0.0000 C   0  0  0  0  0  0  0  0  0  0  0  0
   -1.7155   -2.6975    0.0000 C   0  0  0  0  0  0  0  0  0  0  0  0
   -0.5158   -0.3930    0.0000 C   0  0  0  0  0  0  0  0  0  0  0  0
   -0.2058   -1.8606    0.0000 C   0  0  0  0  0  0  0  0  0  0  0  0
    1.1350   -2.5332    0.0000 C   0  0  0  0  0  0  0  0  0  0  0  0
   -1.9114    0.1568    0.0000 C   0  0  0  0  0  0  0  0  0  0  0  0
   -2.7061    0.0942    0.0000 C   0  0  0  0  0  0  0  0  0  0  0  0
   -2.6501   -1.1487    0.0000 C   0  0  0  0  0  0  0  0  0  0  0  0
  1  2  1  0
  2  3  2  0
  3  4  1  0
  4  5  1  0
  5  6  2  0
  5  7  1  0
  7  8  1  1
  7  9  1  0
  9 10  1  6
 11 10  1  1
 11 12  1  0
 12 13  2  0
 12 14  1  0
 14 15  1  0
 15 16  1  1
 15 17  1  0
 17 18  1  6
 18 19  1  0
 17 20  1  0
 20 21  1  0
 20 22  1  0
 19  2  1  0
  7  3  1  0
 17  9  1  0
 20 11  1  0
M  END
