
     RDKit          2D

 23 25  0  0  0  0  0  0  0  0999 V2000
    5.7746   -1.2416    0.0000 C   0  0  0  0  0  0  0  0  0  0  0  0
    4.7849   -0.1144    0.0000 O   0  0  0  0  0  0  0  0  0  0  0  0
    3.3139   -0.4078    0.0000 C   0  0  0  0  0  0  0  0  0  0  0  0
    2.8325   -1.8285    0.0000 C   0  0  0  0  0  0  0  0  0  0  0  0
    1.3615   -2.1219    0.0000 C   0  0  0  0  0  0  0  0  0  0  0  0
    0.8801   -3.5426    0.0000 O   0  0  0  0  0  0  0  0  0  0  0  0
    0.3719   -0.9947    0.0000 C   0  0  0  0  0  0  0  0  0  0  0  0
   -0.8526   -1.8611    0.0000 C   0  0  0  0  0  0  0  0  0  0  0  0
   -0.4070   -3.2934    0.0000 O   0  0  0  0  0  0  0  0  0  0  0  0
   -2.3525   -1.8423    0.0000 C   0  0  0  0  0  0  0  0  0  0  0  0
   -3.7304   -2.4351    0.0000 O   0  0  0  0  0  0  0  0  0  0  0  0
   -3.5549   -0.9454    0.0000 C   0  0  0  0  0  0  0  0  0  0  0  0
   -5.0485   -1.0835    0.0000 C   0  0  0  0  0  0  0  0  0  0  0  0
   -4.0005    0.4869    0.0000 C   0  0  0  0  0  0  0  0  0  0  0  0
   -3.5191    1.9075    0.0000 C   0  0  0  0  0  0  0  0  0  0  0  0
   -2.2946    2.7739    0.0000 C   0  0  0  0  0  0  0  0  0  0  0  0
   -0.7947    2.7551    0.0000 C   0  0  0  0  0  0  0  0  0  0  0  0
   -0.3133    4.1758    0.0000 C   0  0  0  0  0  0  0  0  0  0  0  0
    1.1577    4.4692    0.0000 O   0  0  0  0  0  0  0  0  0  0  0  0
    0.4077    1.8583    0.0000 C   0  0  0  0  0  0  0  0  0  0  0  0
    0.8533    0.4260    0.0000 C   0  0  0  0  0  0  0  0  0  0  0  0
    2.3243    0.7194    0.0000 C   0  0  0  0  0  0  0  0  0  0  0  0
    2.8057    2.1401    0.0000 O   0  0  0  0  0  0  0  0  0  0  0  0
  1  2  1  0
  2  3  1  0
  3  4  2  0
  4  5  1  0
  5  6  1  0
  5  7  2  0
  7  8  1  0
  8  9  2  0
  8 10  1  0
 10 11  1  1
 11 12  1  0
 12 13  1  1
 12 14  1  0
 14 15  1  0
 15 16  1  0
 16 17  2  0
 17 18  1  0
 18 19  1  0
 17 20  1  0
 20 21  1  0
 21 22  2  0
 22 23  1  0
 22  3  1  0
 21  7  1  0
 12 10  1  0
M  END
