
     RDKit          2D

 23 24  0  0  0  0  0  0  0  0999 V2000
    6.5111   -1.4461    0.0000 C   0  0  0  0  0  0  0  0  0  0  0  0
    5.4461   -0.3898    0.0000 C   0  0  0  0  0  0  0  0  0  0  0  0
    3.9988   -0.7840    0.0000 O   0  0  0  0  0  0  0  0  0  0  0  0
    2.9337    0.2722    0.0000 C   0  0  0  0  0  0  0  0  0  0  0  0
    1.4865   -0.1220    0.0000 N   0  0  0  0  0  0  0  0  0  0  0  0
    0.4214    0.9343    0.0000 C   0  0  0  0  0  0  0  0  0  0  0  0
   -1.0258    0.5401    0.0000 C   0  0  0  0  0  0  0  0  0  0  0  0
   -1.4081   -0.9104    0.0000 C   0  0  0  0  0  0  0  0  0  0  0  0
   -2.8553   -1.3046    0.0000 N   0  0  0  0  0  0  0  0  0  0  0  0
   -3.9204   -0.2483    0.0000 C   0  0  0  0  0  0  0  0  0  0  0  0
   -3.5381    1.2022    0.0000 O   0  0  0  0  0  0  0  0  0  0  0  0
   -5.3677   -0.6425    0.0000 C   0  0  0  0  0  0  0  0  0  0  0  0
   -6.4327    0.4138    0.0000 C   0  0  0  0  0  0  0  0  0  0  0  0
   -5.3764    1.4788    0.0000 C   0  0  0  0  0  0  0  0  0  0  0  0
   -7.4890   -0.6512    0.0000 C   0  0  0  0  0  0  0  0  0  0  0  0
   -7.4977    1.4701    0.0000 O   0  0  0  0  0  0  0  0  0  0  0  0
   -0.3430   -1.9666    0.0000 N   0  0  0  0  0  0  0  0  0  0  0  0
    1.1042   -1.5724    0.0000 C   0  0  0  0  0  0  0  0  0  0  0  0
    2.1693   -2.6287    0.0000 O   0  0  0  0  0  0  0  0  0  0  0  0
    3.3160    1.7227    0.0000 C   0  0  0  0  0  0  0  0  0  0  0  0
    4.7633    2.1169    0.0000 C   0  0  0  0  0  0  0  0  0  0  0  0
    5.8283    1.0606    0.0000 C   0  0  0  0  0  0  0  0  0  0  0  0
    7.2756    1.4549    0.0000 O   0  0  0  0  0  0  0  0  0  0  0  0
  2  1  1  1
  2  3  1  0
  3  4  1  0
  4  5  1  1
  5  6  1  0
  6  7  2  0
  7  8  1  0
  8  9  2  3
  9 10  1  0
 10 11  2  0
 10 12  1  0
 12 13  1  0
 13 14  1  0
 13 15  1  0
 13 16  1  0
  8 17  1  0
 17 18  2  0
 18 19  1  0
  4 20  1  0
 20 21  1  0
 21 22  1  0
 22 23  1  6
 22  2  1  0
 18  5  1  0
M  END
