
     RDKit          2D

 23 26  0  0  0  0  0  0  0  0999 V2000
   -0.7399    5.1904    0.0000 C   0  0  0  0  0  0  0  0  0  0  0  0
   -1.1213    3.7397    0.0000 C   0  0  0  0  0  0  0  0  0  0  0  0
   -2.5683    3.3446    0.0000 O   0  0  0  0  0  0  0  0  0  0  0  0
   -0.0556    2.6841    0.0000 C   0  0  0  0  0  0  0  0  0  0  0  0
   -0.4369    1.2334    0.0000 N   0  0  0  0  0  0  0  0  0  0  0  0
    0.6288    0.1778    0.0000 C   0  0  0  0  0  0  0  0  0  0  0  0
    0.2475   -1.2729    0.0000 C   0  0  0  0  0  0  0  0  0  0  0  0
    1.5094   -2.0839    0.0000 C   0  0  0  0  0  0  0  0  0  0  0  0
    1.5950   -3.5814    0.0000 O   0  0  0  0  0  0  0  0  0  0  0  0
    2.6706   -1.1344    0.0000 C   0  0  0  0  0  0  0  0  0  0  0  0
    4.1532   -1.3619    0.0000 C   0  0  0  0  0  0  0  0  0  0  0  0
    5.0916   -0.1917    0.0000 C   0  0  0  0  0  0  0  0  0  0  0  0
    4.5474    1.2061    0.0000 C   0  0  0  0  0  0  0  0  0  0  0  0
    3.0648    1.4336    0.0000 C   0  0  0  0  0  0  0  0  0  0  0  0
    2.1264    0.2634    0.0000 C   0  0  0  0  0  0  0  0  0  0  0  0
   -1.1995   -1.6680    0.0000 C   0  0  0  0  0  0  0  0  0  0  0  0
   -1.5808   -3.1188    0.0000 C   0  0  0  0  0  0  0  0  0  0  0  0
   -3.0279   -3.5139    0.0000 C   0  0  0  0  0  0  0  0  0  0  0  0
   -4.0936   -2.4583    0.0000 C   0  0  0  0  0  0  0  0  0  0  0  0
   -3.7122   -1.0076    0.0000 C   0  0  0  0  0  0  0  0  0  0  0  0
   -2.2652   -0.6125    0.0000 C   0  0  0  0  0  0  0  0  0  0  0  0
   -1.8839    0.8383    0.0000 C   0  0  0  0  0  0  0  0  0  0  0  0
   -2.9496    1.8939    0.0000 O   0  0  0  0  0  0  0  0  0  0  0  0
  2  1  1  6
  2  3  1  0
  2  4  1  0
  4  5  1  0
  5  6  1  0
  6  7  2  0
  7  8  1  0
  8  9  2  0
  8 10  1  0
 10 11  2  0
 11 12  1  0
 12 13  2  0
 13 14  1  0
 14 15  2  0
  7 16  1  0
 16 17  2  0
 17 18  1  0
 18 19  2  0
 19 20  1  0
 20 21  2  0
 21 22  1  0
 22 23  2  0
 22  5  1  0
 15  6  1  0
 21 16  1  0
 15 10  1  0
M  END
