
     RDKit          2D

 23 26  0  0  0  0  0  0  0  0999 V2000
    3.0150    2.2996    0.0000 C   0  0  0  0  0  0  0  0  0  0  0  0
    3.4191    0.8551    0.0000 C   0  0  0  0  0  0  0  0  0  0  0  0
    4.7715    1.5039    0.0000 C   0  0  0  0  0  0  0  0  0  0  0  0
    4.2929   -0.3641    0.0000 C   0  0  0  0  0  0  0  0  0  0  0  0
    5.7857   -0.2170    0.0000 O   0  0  0  0  0  0  0  0  0  0  0  0
    3.6739   -1.7305    0.0000 C   0  0  0  0  0  0  0  0  0  0  0  0
    2.1811   -1.8776    0.0000 C   0  0  0  0  0  0  0  0  0  0  0  0
    1.3074   -0.6584    0.0000 C   0  0  0  0  0  0  0  0  0  0  0  0
    0.6884   -2.0247    0.0000 C   0  0  0  0  0  0  0  0  0  0  0  0
    1.9263    0.7080    0.0000 C   0  0  0  0  0  0  0  0  0  0  0  0
    1.0526    1.9272    0.0000 C   0  0  0  0  0  0  0  0  0  0  0  0
   -0.4402    1.7801    0.0000 C   0  0  0  0  0  0  0  0  0  0  0  0
   -1.0592    0.4137    0.0000 C   0  0  0  0  0  0  0  0  0  0  0  0
   -2.5520    0.2666    0.0000 C   0  0  0  0  0  0  0  0  0  0  0  0
   -3.1709   -1.0997    0.0000 C   0  0  0  0  0  0  0  0  0  0  0  0
   -2.2972   -2.3189    0.0000 C   0  0  0  0  0  0  0  0  0  0  0  0
   -0.8044   -2.1718    0.0000 C   0  0  0  0  0  0  0  0  0  0  0  0
   -0.1854   -0.8055    0.0000 C   0  0  0  0  0  0  0  0  0  0  0  0
   -3.6252    0.3299    0.0000 C   0  0  0  0  0  0  0  0  0  0  0  0
   -4.3668    1.6337    0.0000 O   0  0  0  0  0  0  0  0  0  0  0  0
   -4.9995   -0.2713    0.0000 C   0  0  0  0  0  0  0  0  0  0  0  0
   -6.2072    0.6182    0.0000 O   0  0  0  0  0  0  0  0  0  0  0  0
   -2.4060    1.2036    0.0000 C   0  0  0  0  0  0  0  0  0  0  0  0
  1  2  1  0
  2  3  1  0
  2  4  1  0
  4  5  1  1
  4  6  1  0
  6  7  1  0
  7  8  1  0
  8  9  1  1
  8 10  1  0
 10 11  1  1
 11 12  1  0
 13 12  1  1
 13 14  1  0
 14 15  1  0
 15 16  1  6
 16 17  1  0
 18 17  1  1
 15 19  1  0
 19 20  1  6
 19 21  1  0
 21 22  1  0
 19 23  1  0
 10  2  1  0
 18 13  1  0
 18  8  1  0
 23 13  1  0
M  END
