
     RDKit          2D

 23 26  0  0  0  0  0  0  0  0999 V2000
    5.9846   -3.3707    0.0000 C   0  0  0  0  0  0  0  0  0  0  0  0
    4.8977   -2.3369    0.0000 C   0  0  0  0  0  0  0  0  0  0  0  0
    3.4590   -2.7614    0.0000 C   0  0  0  0  0  0  0  0  0  0  0  0
    2.3721   -1.7276    0.0000 C   0  0  0  0  0  0  0  0  0  0  0  0
    2.7239   -0.2695    0.0000 C   0  0  0  0  0  0  0  0  0  0  0  0
    4.1626    0.1550    0.0000 C   0  0  0  0  0  0  0  0  0  0  0  0
    5.2495   -0.8788    0.0000 C   0  0  0  0  0  0  0  0  0  0  0  0
    4.2035    1.6544    0.0000 N   0  0  0  0  0  0  0  0  0  0  0  0
    2.7901    2.1567    0.0000 C   0  0  0  0  0  0  0  0  0  0  0  0
    2.2176    3.5431    0.0000 C   0  0  0  0  0  0  0  0  0  0  0  0
    0.7307    3.7406    0.0000 O   0  0  0  0  0  0  0  0  0  0  0  0
   -0.1838    2.5516    0.0000 C   0  0  0  0  0  0  0  0  0  0  0  0
    0.3887    1.1651    0.0000 C   0  0  0  0  0  0  0  0  0  0  0  0
   -0.5258   -0.0239    0.0000 C   0  0  0  0  0  0  0  0  0  0  0  0
   -2.0127    0.1735    0.0000 N   0  0  0  0  0  0  0  0  0  0  0  0
   -2.9272   -1.0155    0.0000 C   0  0  0  0  0  0  0  0  0  0  0  0
   -4.4141   -0.8180    0.0000 C   0  0  0  0  0  0  0  0  0  0  0  0
   -4.9866    0.5684    0.0000 C   0  0  0  0  0  0  0  0  0  0  0  0
   -6.4736    0.7659    0.0000 C   0  0  0  0  0  0  0  0  0  0  0  0
   -7.3880   -0.4231    0.0000 C   0  0  0  0  0  0  0  0  0  0  0  0
   -6.8155   -1.8096    0.0000 N   0  0  0  0  0  0  0  0  0  0  0  0
   -5.3286   -2.0070    0.0000 C   0  0  0  0  0  0  0  0  0  0  0  0
    1.8757    0.9677    0.0000 N   0  0  0  0  0  0  0  0  0  0  0  0
  1  2  1  0
  2  3  2  0
  3  4  1  0
  4  5  2  0
  5  6  1  0
  6  7  2  0
  6  8  1  0
  8  9  2  0
  9 10  1  0
 10 11  1  0
 11 12  1  0
 12 13  1  0
 13 14  1  1
 14 15  1  0
 15 16  1  0
 16 17  1  0
 17 18  2  0
 18 19  1  0
 19 20  2  0
 20 21  1  0
 21 22  2  0
 13 23  1  0
  7  2  1  0
 23  9  1  0
 23  5  1  0
 22 17  1  0
M  END
