
     RDKit          2D

 23 26  0  0  0  0  0  0  0  0999 V2000
   -1.9266   -3.1258    0.0000 C   0  0  0  0  0  0  0  0  0  0  0  0
   -0.5621   -2.5027    0.0000 C   0  0  0  0  0  0  0  0  0  0  0  0
    0.7440   -3.2403    0.0000 C   0  0  0  0  0  0  0  0  0  0  0  0
    0.9149   -4.7306    0.0000 O   0  0  0  0  0  0  0  0  0  0  0  0
    1.8491   -2.2261    0.0000 O   0  0  0  0  0  0  0  0  0  0  0  0
    1.2260   -0.8616    0.0000 C   0  0  0  0  0  0  0  0  0  0  0  0
   -0.2642   -1.0326    0.0000 C   0  0  0  0  0  0  0  0  0  0  0  0
   -1.3271    0.0259    0.0000 C   0  0  0  0  0  0  0  0  0  0  0  0
   -2.7419   -0.4724    0.0000 O   0  0  0  0  0  0  0  0  0  0  0  0
   -3.8808    0.5037    0.0000 C   0  0  0  0  0  0  0  0  0  0  0  0
   -3.6049    1.9781    0.0000 O   0  0  0  0  0  0  0  0  0  0  0  0
   -5.2956    0.0054    0.0000 C   0  0  0  0  0  0  0  0  0  0  0  0
   -6.4346    0.9816    0.0000 C   0  0  0  0  0  0  0  0  0  0  0  0
   -1.1621    1.5168    0.0000 C   0  0  0  0  0  0  0  0  0  0  0  0
    0.1063    2.3174    0.0000 C   0  0  0  0  0  0  0  0  0  0  0  0
   -0.0646    3.8076    0.0000 C   0  0  0  0  0  0  0  0  0  0  0  0
    1.5232    1.8249    0.0000 C   0  0  0  0  0  0  0  0  0  0  0  0
    2.7148    2.7360    0.0000 C   0  0  0  0  0  0  0  0  0  0  0  0
    3.9495    1.8843    0.0000 C   0  0  0  0  0  0  0  0  0  0  0  0
    4.9802    0.7944    0.0000 O   0  0  0  0  0  0  0  0  0  0  0  0
    3.5210    0.4468    0.0000 C   0  0  0  0  0  0  0  0  0  0  0  0
    3.7142   -1.0407    0.0000 C   0  0  0  0  0  0  0  0  0  0  0  0
    2.0215    0.4101    0.0000 C   0  0  0  0  0  0  0  0  0  0  0  0
  1  2  2  0
  2  3  1  0
  3  4  2  0
  3  5  1  0
  6  5  1  1
  6  7  1  0
  7  8  1  0
  8  9  1  1
  9 10  1  0
 10 11  2  0
 10 12  1  0
 12 13  1  0
  8 14  1  0
 14 15  1  0
 15 16  2  0
 15 17  1  0
 17 18  1  6
 19 18  1  6
 19 20  1  0
 20 21  1  0
 21 22  1  1
 21 23  1  0
  7  2  1  6
 23 17  1  6
 23  6  1  0
 21 19  1  0
M  END
