
     RDKit          2D

 23 26  0  0  0  0  0  0  0  0999 V2000
    1.2677    2.3971    0.0000 N   0  0  0  0  0  0  0  0  0  0  0  0
   -0.0391    1.6608    0.0000 C   0  0  0  0  0  0  0  0  0  0  0  0
   -0.0548    0.1608    0.0000 C   0  0  0  0  0  0  0  0  0  0  0  0
    1.2363   -0.6027    0.0000 C   0  0  0  0  0  0  0  0  0  0  0  0
    1.3775   -2.0961    0.0000 C   0  0  0  0  0  0  0  0  0  0  0  0
    2.8414   -2.4233    0.0000 N   0  0  0  0  0  0  0  0  0  0  0  0
    3.6049   -1.1322    0.0000 C   0  0  0  0  0  0  0  0  0  0  0  0
    5.0753   -0.8357    0.0000 C   0  0  0  0  0  0  0  0  0  0  0  0
    5.5538    0.5860    0.0000 C   0  0  0  0  0  0  0  0  0  0  0  0
    7.0242    0.8825    0.0000 Br  0  0  0  0  0  0  0  0  0  0  0  0
    4.5618    1.7112    0.0000 C   0  0  0  0  0  0  0  0  0  0  0  0
    3.0914    1.4147    0.0000 C   0  0  0  0  0  0  0  0  0  0  0  0
    2.6129   -0.0070    0.0000 C   0  0  0  0  0  0  0  0  0  0  0  0
   -1.3616   -0.5755    0.0000 C   0  0  0  0  0  0  0  0  0  0  0  0
   -1.5340   -2.0656    0.0000 C   0  0  0  0  0  0  0  0  0  0  0  0
   -3.0044   -2.3621    0.0000 N   0  0  0  0  0  0  0  0  0  0  0  0
   -3.7408   -1.0553    0.0000 C   0  0  0  0  0  0  0  0  0  0  0  0
   -5.2047   -0.7281    0.0000 C   0  0  0  0  0  0  0  0  0  0  0  0
   -5.6532    0.7033    0.0000 C   0  0  0  0  0  0  0  0  0  0  0  0
   -7.1171    1.0305    0.0000 Br  0  0  0  0  0  0  0  0  0  0  0  0
   -4.6379    1.8075    0.0000 C   0  0  0  0  0  0  0  0  0  0  0  0
   -3.1740    1.4802    0.0000 C   0  0  0  0  0  0  0  0  0  0  0  0
   -2.7255    0.0489    0.0000 C   0  0  0  0  0  0  0  0  0  0  0  0
  1  2  1  0
  2  3  1  0
  3  4  1  0
  4  5  2  0
  5  6  1  0
  6  7  1  0
  7  8  2  0
  8  9  1  0
  9 10  1  0
  9 11  2  0
 11 12  1  0
 12 13  2  0
  3 14  1  0
 14 15  2  0
 15 16  1  0
 16 17  1  0
 17 18  2  0
 18 19  1  0
 19 20  1  0
 19 21  2  0
 21 22  1  0
 22 23  2  0
 13  4  1  0
 23 14  1  0
 13  7  1  0
 23 17  1  0
M  END
