
     RDKit          2D

 23 24  0  0  0  0  0  0  0  0999 V2000
   -7.4085   -2.9885    0.0000 C   0  0  0  0  0  0  0  0  0  0  0  0
   -5.9470   -2.6505    0.0000 O   0  0  0  0  0  0  0  0  0  0  0  0
   -5.5090   -1.2159    0.0000 C   0  0  0  0  0  0  0  0  0  0  0  0
   -6.5324   -0.1193    0.0000 C   0  0  0  0  0  0  0  0  0  0  0  0
   -6.0943    1.3154    0.0000 C   0  0  0  0  0  0  0  0  0  0  0  0
   -7.1177    2.4120    0.0000 O   0  0  0  0  0  0  0  0  0  0  0  0
   -4.6329    1.6533    0.0000 C   0  0  0  0  0  0  0  0  0  0  0  0
   -3.6095    0.5566    0.0000 C   0  0  0  0  0  0  0  0  0  0  0  0
   -2.1481    0.8946    0.0000 C   0  0  0  0  0  0  0  0  0  0  0  0
   -1.1247   -0.2021    0.0000 C   0  0  0  0  0  0  0  0  0  0  0  0
    0.3367    0.1358    0.0000 C   0  0  0  0  0  0  0  0  0  0  0  0
    1.3601   -0.9608    0.0000 C   0  0  0  0  0  0  0  0  0  0  0  0
    2.8216   -0.6229    0.0000 C   0  0  0  0  0  0  0  0  0  0  0  0
    3.2596    0.8117    0.0000 C   0  0  0  0  0  0  0  0  0  0  0  0
    4.7211    1.1497    0.0000 O   0  0  0  0  0  0  0  0  0  0  0  0
    5.7444    0.0530    0.0000 C   0  0  0  0  0  0  0  0  0  0  0  0
    7.2059    0.3909    0.0000 C   0  0  0  0  0  0  0  0  0  0  0  0
    8.2293   -0.7057    0.0000 C   0  0  0  0  0  0  0  0  0  0  0  0
    9.6907   -0.3678    0.0000 C   0  0  0  0  0  0  0  0  0  0  0  0
    7.7912   -2.1403    0.0000 C   0  0  0  0  0  0  0  0  0  0  0  0
    2.2362    1.9084    0.0000 C   0  0  0  0  0  0  0  0  0  0  0  0
    0.7748    1.5705    0.0000 C   0  0  0  0  0  0  0  0  0  0  0  0
   -4.0476   -0.8780    0.0000 C   0  0  0  0  0  0  0  0  0  0  0  0
  1  2  1  0
  2  3  1  0
  3  4  2  0
  4  5  1  0
  5  6  1  0
  5  7  2  0
  7  8  1  0
  8  9  1  0
  9 10  2  3
 10 11  1  0
 11 12  2  0
 12 13  1  0
 13 14  2  0
 14 15  1  0
 15 16  1  0
 16 17  1  0
 17 18  2  0
 18 19  1  0
 18 20  1  0
 14 21  1  0
 21 22  2  0
  8 23  2  0
 23  3  1  0
 22 11  1  0
M  END
