
     RDKit          2D

 23 24  0  0  0  0  0  0  0  0999 V2000
   -1.5526   -3.3057    0.0000 O   0  0  0  0  0  0  0  0  0  0  0  0
   -2.8053   -2.4806    0.0000 C   0  0  0  0  0  0  0  0  0  0  0  0
   -4.1462   -3.1530    0.0000 O   0  0  0  0  0  0  0  0  0  0  0  0
   -2.7171   -0.9832    0.0000 C   0  0  0  0  0  0  0  0  0  0  0  0
   -3.9698   -0.1581    0.0000 C   0  0  0  0  0  0  0  0  0  0  0  0
   -3.8816    1.3393    0.0000 C   0  0  0  0  0  0  0  0  0  0  0  0
   -5.1342    2.1643    0.0000 O   0  0  0  0  0  0  0  0  0  0  0  0
   -2.5407    2.0116    0.0000 C   0  0  0  0  0  0  0  0  0  0  0  0
   -2.4525    3.5090    0.0000 O   0  0  0  0  0  0  0  0  0  0  0  0
   -1.2880    1.1865    0.0000 C   0  0  0  0  0  0  0  0  0  0  0  0
    0.0529    1.8588    0.0000 O   0  0  0  0  0  0  0  0  0  0  0  0
    1.3056    1.0337    0.0000 C   0  0  0  0  0  0  0  0  0  0  0  0
    1.2174   -0.4637    0.0000 O   0  0  0  0  0  0  0  0  0  0  0  0
    2.4701   -1.2888    0.0000 C   0  0  0  0  0  0  0  0  0  0  0  0
    2.3819   -2.7862    0.0000 C   0  0  0  0  0  0  0  0  0  0  0  0
    1.0410   -3.4585    0.0000 O   0  0  0  0  0  0  0  0  0  0  0  0
    3.8110   -0.6165    0.0000 C   0  0  0  0  0  0  0  0  0  0  0  0
    5.0637   -1.4416    0.0000 O   0  0  0  0  0  0  0  0  0  0  0  0
    3.8992    0.8809    0.0000 C   0  0  0  0  0  0  0  0  0  0  0  0
    5.2401    1.5533    0.0000 O   0  0  0  0  0  0  0  0  0  0  0  0
    2.6465    1.7060    0.0000 C   0  0  0  0  0  0  0  0  0  0  0  0
    2.7347    3.2034    0.0000 O   0  0  0  0  0  0  0  0  0  0  0  0
   -1.3762   -0.3109    0.0000 C   0  0  0  0  0  0  0  0  0  0  0  0
  1  2  2  0
  2  3  1  0
  2  4  1  0
  4  5  2  0
  5  6  1  0
  6  7  1  0
  6  8  2  0
  8  9  1  0
  8 10  1  0
 10 11  1  0
 12 11  1  1
 12 13  1  0
 13 14  1  0
 14 15  1  1
 15 16  1  0
 14 17  1  0
 17 18  1  6
 17 19  1  0
 19 20  1  1
 19 21  1  0
 21 22  1  6
 10 23  2  0
 23  4  1  0
 21 12  1  0
M  END
