
     RDKit          2D

 23 25  0  0  0  0  0  0  0  0999 V2000
   -1.8869    2.3997    0.0000 C   0  0  0  0  0  0  0  0  0  0  0  0
   -1.1939    1.0694    0.0000 C   0  0  0  0  0  0  0  0  0  0  0  0
   -1.9995   -0.1959    0.0000 C   0  0  0  0  0  0  0  0  0  0  0  0
   -3.4981   -0.1309    0.0000 C   0  0  0  0  0  0  0  0  0  0  0  0
   -4.1911    1.1994    0.0000 C   0  0  0  0  0  0  0  0  0  0  0  0
   -5.6897    1.2644    0.0000 C   0  0  0  0  0  0  0  0  0  0  0  0
   -6.4953   -0.0009    0.0000 C   0  0  0  0  0  0  0  0  0  0  0  0
   -5.8023   -1.3312    0.0000 C   0  0  0  0  0  0  0  0  0  0  0  0
   -4.3037   -1.3962    0.0000 C   0  0  0  0  0  0  0  0  0  0  0  0
   -1.3065   -1.5262    0.0000 C   0  0  0  0  0  0  0  0  0  0  0  0
   -2.1121   -2.7916    0.0000 O   0  0  0  0  0  0  0  0  0  0  0  0
    0.1921   -1.5913    0.0000 O   0  0  0  0  0  0  0  0  0  0  0  0
    0.9977   -0.3259    0.0000 C   0  0  0  0  0  0  0  0  0  0  0  0
    2.4963   -0.3910    0.0000 C   0  0  0  0  0  0  0  0  0  0  0  0
    3.3019    0.8743    0.0000 C   0  0  0  0  0  0  0  0  0  0  0  0
    4.8005    0.8093    0.0000 O   0  0  0  0  0  0  0  0  0  0  0  0
    5.4935   -0.5210    0.0000 S   0  0  0  0  0  0  0  0  0  0  0  0
    6.1864   -1.8513    0.0000 C   0  0  0  0  0  0  0  0  0  0  0  0
    4.1631   -1.2140    0.0000 O   0  0  0  0  0  0  0  0  0  0  0  0
    6.8238    0.1720    0.0000 O   0  0  0  0  0  0  0  0  0  0  0  0
    2.6089    2.2047    0.0000 C   0  0  0  0  0  0  0  0  0  0  0  0
    1.1103    2.2697    0.0000 C   0  0  0  0  0  0  0  0  0  0  0  0
    0.3047    1.0044    0.0000 C   0  0  0  0  0  0  0  0  0  0  0  0
  1  2  1  0
  2  3  2  0
  3  4  1  0
  4  5  2  0
  5  6  1  0
  6  7  2  0
  7  8  1  0
  8  9  2  0
  3 10  1  0
 10 11  2  0
 10 12  1  0
 12 13  1  0
 13 14  2  0
 14 15  1  0
 15 16  1  0
 16 17  1  0
 17 18  1  0
 17 19  2  0
 17 20  2  0
 15 21  2  0
 21 22  1  0
 22 23  2  0
 23  2  1  0
  9  4  1  0
 23 13  1  0
M  END
