
     RDKit          2D

 23 25  0  0  0  0  0  0  0  0999 V2000
   -7.8021   -1.7922    0.0000 C   0  0  0  0  0  0  0  0  0  0  0  0
   -6.3030   -1.7410    0.0000 O   0  0  0  0  0  0  0  0  0  0  0  0
   -5.5977   -0.4171    0.0000 C   0  0  0  0  0  0  0  0  0  0  0  0
   -6.3916    0.8556    0.0000 C   0  0  0  0  0  0  0  0  0  0  0  0
   -5.6864    2.1794    0.0000 C   0  0  0  0  0  0  0  0  0  0  0  0
   -4.1872    2.2306    0.0000 C   0  0  0  0  0  0  0  0  0  0  0  0
   -3.3934    0.9579    0.0000 C   0  0  0  0  0  0  0  0  0  0  0  0
   -1.8942    1.0091    0.0000 C   0  0  0  0  0  0  0  0  0  0  0  0
   -1.1003   -0.2636    0.0000 N   0  0  0  0  0  0  0  0  0  0  0  0
    0.3988   -0.2124    0.0000 C   0  0  0  0  0  0  0  0  0  0  0  0
    1.1927   -1.4851    0.0000 C   0  0  0  0  0  0  0  0  0  0  0  0
    2.6918   -1.4340    0.0000 C   0  0  0  0  0  0  0  0  0  0  0  0
    3.3970   -0.1101    0.0000 C   0  0  0  0  0  0  0  0  0  0  0  0
    4.8962   -0.0589    0.0000 C   0  0  0  0  0  0  0  0  0  0  0  0
    5.6900   -1.3316    0.0000 C   0  0  0  0  0  0  0  0  0  0  0  0
    7.1892   -1.2804    0.0000 C   0  0  0  0  0  0  0  0  0  0  0  0
    7.8944    0.0434    0.0000 C   0  0  0  0  0  0  0  0  0  0  0  0
    7.1005    1.3161    0.0000 C   0  0  0  0  0  0  0  0  0  0  0  0
    5.6014    1.2650    0.0000 C   0  0  0  0  0  0  0  0  0  0  0  0
    2.6032    1.1626    0.0000 C   0  0  0  0  0  0  0  0  0  0  0  0
    1.1040    1.1114    0.0000 C   0  0  0  0  0  0  0  0  0  0  0  0
   -4.0986   -0.3660    0.0000 C   0  0  0  0  0  0  0  0  0  0  0  0
   -3.3047   -1.6387    0.0000 O   0  0  0  0  0  0  0  0  0  0  0  0
  1  2  1  0
  2  3  1  0
  3  4  2  0
  4  5  1  0
  5  6  2  0
  6  7  1  0
  7  8  1  0
  8  9  2  3
  9 10  1  0
 10 11  2  0
 11 12  1  0
 12 13  2  0
 13 14  1  0
 14 15  2  0
 15 16  1  0
 16 17  2  0
 17 18  1  0
 18 19  2  0
 13 20  1  0
 20 21  2  0
  7 22  2  0
 22 23  1  0
 22  3  1  0
 21 10  1  0
 19 14  1  0
M  END
