
     RDKit          2D

 23 26  0  0  0  0  0  0  0  0999 V2000
   -3.9760    1.1812    0.0000 O   0  0  0  0  0  0  0  0  0  0  0  0
   -2.6966    1.9641    0.0000 C   0  0  0  0  0  0  0  0  0  0  0  0
   -2.7349    3.4636    0.0000 C   0  0  0  0  0  0  0  0  0  0  0  0
   -1.4554    4.2466    0.0000 C   0  0  0  0  0  0  0  0  0  0  0  0
   -0.1377    3.5300    0.0000 C   0  0  0  0  0  0  0  0  0  0  0  0
   -0.0993    2.0305    0.0000 C   0  0  0  0  0  0  0  0  0  0  0  0
   -1.3788    1.2475    0.0000 C   0  0  0  0  0  0  0  0  0  0  0  0
   -1.0296   -0.2112    0.0000 C   0  0  0  0  0  0  0  0  0  0  0  0
   -2.0045   -1.3512    0.0000 C   0  0  0  0  0  0  0  0  0  0  0  0
   -3.4792   -1.0769    0.0000 C   0  0  0  0  0  0  0  0  0  0  0  0
   -4.4541   -2.2169    0.0000 C   0  0  0  0  0  0  0  0  0  0  0  0
   -3.9543   -3.6312    0.0000 C   0  0  0  0  0  0  0  0  0  0  0  0
   -2.4795   -3.9055    0.0000 C   0  0  0  0  0  0  0  0  0  0  0  0
   -1.5046   -2.7655    0.0000 C   0  0  0  0  0  0  0  0  0  0  0  0
    0.4657   -0.3299    0.0000 C   0  0  0  0  0  0  0  0  0  0  0  0
    1.0406    1.0556    0.0000 N   0  0  0  0  0  0  0  0  0  0  0  0
    2.4994    1.4048    0.0000 C   0  0  0  0  0  0  0  0  0  0  0  0
    3.5313    0.3161    0.0000 C   0  0  0  0  0  0  0  0  0  0  0  0
    3.1043   -1.1218    0.0000 C   0  0  0  0  0  0  0  0  0  0  0  0
    4.1362   -2.2106    0.0000 C   0  0  0  0  0  0  0  0  0  0  0  0
    5.5949   -1.8613    0.0000 C   0  0  0  0  0  0  0  0  0  0  0  0
    6.0219   -0.4234    0.0000 C   0  0  0  0  0  0  0  0  0  0  0  0
    4.9900    0.6654    0.0000 C   0  0  0  0  0  0  0  0  0  0  0  0
  1  2  2  0
  2  3  1  0
  3  4  1  0
  4  5  1  0
  6  5  1  1
  6  7  1  0
  7  8  1  0
  8  9  1  6
  9 10  2  0
 10 11  1  0
 11 12  2  0
 12 13  1  0
 13 14  2  0
  8 15  1  0
 15 16  1  0
 16 17  1  0
 17 18  1  0
 18 19  2  0
 19 20  1  0
 20 21  2  0
 21 22  1  0
 22 23  2  0
  7  2  1  1
 14  9  1  0
 23 18  1  0
 16  6  1  0
M  END
