
     RDKit          2D

 23 26  0  0  0  0  0  0  0  0999 V2000
    6.1302    1.6749    0.0000 C   0  0  0  0  0  0  0  0  0  0  0  0
    4.9600    0.7365    0.0000 C   0  0  0  0  0  0  0  0  0  0  0  0
    5.1876   -0.7461    0.0000 O   0  0  0  0  0  0  0  0  0  0  0  0
    3.5622    1.2807    0.0000 O   0  0  0  0  0  0  0  0  0  0  0  0
    2.3920    0.3423    0.0000 C   0  0  0  0  0  0  0  0  0  0  0  0
    2.6196   -1.1403    0.0000 C   0  0  0  0  0  0  0  0  0  0  0  0
    2.8472   -2.6230    0.0000 O   0  0  0  0  0  0  0  0  0  0  0  0
    1.4494   -2.0788    0.0000 C   0  0  0  0  0  0  0  0  0  0  0  0
    0.0516   -1.5345    0.0000 C   0  0  0  0  0  0  0  0  0  0  0  0
   -1.1186   -2.4730    0.0000 C   0  0  0  0  0  0  0  0  0  0  0  0
   -2.5164   -1.9288    0.0000 C   0  0  0  0  0  0  0  0  0  0  0  0
   -3.6866   -2.8672    0.0000 O   0  0  0  0  0  0  0  0  0  0  0  0
   -2.7440   -0.4461    0.0000 C   0  0  0  0  0  0  0  0  0  0  0  0
   -1.5738    0.4923    0.0000 C   0  0  0  0  0  0  0  0  0  0  0  0
   -0.1760   -0.0519    0.0000 C   0  0  0  0  0  0  0  0  0  0  0  0
   -0.4036    1.4307    0.0000 C   0  0  0  0  0  0  0  0  0  0  0  0
    0.9942    0.8865    0.0000 C   0  0  0  0  0  0  0  0  0  0  0  0
    0.7666    2.3691    0.0000 C   0  0  0  0  0  0  0  0  0  0  0  0
   -4.2267   -0.6737    0.0000 O   0  0  0  0  0  0  0  0  0  0  0  0
   -3.6824    0.7241    0.0000 C   0  0  0  0  0  0  0  0  0  0  0  0
   -4.9645    1.5027    0.0000 C   0  0  0  0  0  0  0  0  0  0  0  0
   -2.6930    1.8514    0.0000 C   0  0  0  0  0  0  0  0  0  0  0  0
   -3.1746    3.2720    0.0000 O   0  0  0  0  0  0  0  0  0  0  0  0
  1  2  1  0
  2  3  2  0
  2  4  1  0
  5  4  1  1
  5  6  1  0
  6  7  1  1
  8  7  1  1
  8  9  1  0
  9 10  2  0
 10 11  1  0
 11 12  2  0
 11 13  1  0
 13 14  1  1
 14 15  1  0
 15 16  1  1
 15 17  1  0
 17 18  1  1
 13 19  1  0
 19 20  1  0
 20 21  1  1
 20 22  1  0
 22 23  2  0
 17  5  1  0
  8  6  1  0
 15  9  1  0
 20 13  1  0
M  END
