
     RDKit          2D

 23 27  0  0  0  0  0  0  0  0999 V2000
   -5.7628   -1.8267    0.0000 C   0  0  0  0  0  0  0  0  0  0  0  0
   -4.2776   -2.0369    0.0000 O   0  0  0  0  0  0  0  0  0  0  0  0
   -3.3529   -0.8558    0.0000 C   0  0  0  0  0  0  0  0  0  0  0  0
   -3.9135    0.5356    0.0000 C   0  0  0  0  0  0  0  0  0  0  0  0
   -2.9888    1.7167    0.0000 C   0  0  0  0  0  0  0  0  0  0  0  0
   -1.5036    1.5065    0.0000 C   0  0  0  0  0  0  0  0  0  0  0  0
   -0.5790    2.6876    0.0000 C   0  0  0  0  0  0  0  0  0  0  0  0
    0.9062    2.4774    0.0000 C   0  0  0  0  0  0  0  0  0  0  0  0
    1.4668    1.0861    0.0000 C   0  0  0  0  0  0  0  0  0  0  0  0
    2.9520    0.8758    0.0000 C   0  0  0  0  0  0  0  0  0  0  0  0
    3.5125   -0.5155    0.0000 C   0  0  0  0  0  0  0  0  0  0  0  0
    2.5879   -1.6966    0.0000 C   0  0  0  0  0  0  0  0  0  0  0  0
    3.1484   -3.0879    0.0000 O   0  0  0  0  0  0  0  0  0  0  0  0
    4.6336   -3.2981    0.0000 C   0  0  0  0  0  0  0  0  0  0  0  0
    1.1027   -1.4864    0.0000 C   0  0  0  0  0  0  0  0  0  0  0  0
   -0.2224   -2.1893    0.0000 O   0  0  0  0  0  0  0  0  0  0  0  0
   -1.8677   -1.0660    0.0000 C   0  0  0  0  0  0  0  0  0  0  0  0
   -0.9431    0.1152    0.0000 C   0  0  0  0  0  0  0  0  0  0  0  0
    0.5421   -0.0951    0.0000 C   0  0  0  0  0  0  0  0  0  0  0  0
    0.0943    0.6243    0.0000 C   0  0  0  0  0  0  0  0  0  0  0  0
    0.8727    1.1701    0.0000 C   0  0  0  0  0  0  0  0  0  0  0  0
    0.2763    1.9105    0.0000 N   0  0  0  0  0  0  0  0  0  0  0  0
    3.3161    3.4483    0.0000 C   0  0  0  0  0  0  0  0  0  0  0  0
  1  2  1  0
  2  3  1  0
  3  4  2  0
  4  5  1  0
  5  6  2  0
  6  7  1  0
  8  7  1  6
  8  9  1  0
  9 10  2  0
 10 11  1  0
 11 12  1  0
 12 13  1  6
 13 14  1  0
 12 15  1  0
 15 16  1  6
 16 17  1  0
 17 18  2  0
 18 19  1  0
 19 20  1  1
 20 21  1  0
 21 22  1  0
 22 23  1  0
 17  3  1  0
 18  6  1  0
 22  8  1  0
 19  9  1  0
 19 15  1  0
M  END
