
     RDKit          2D

 23 26  0  0  0  0  0  0  0  0999 V2000
   -3.0792   -0.5494    0.0000 C   0  0  0  0  0  0  0  0  0  0  0  0
   -2.3434   -0.2426    0.0000 N   0  0  0  0  0  0  0  0  0  0  0  0
   -1.4070   -1.4145    0.0000 C   0  0  0  0  0  0  0  0  0  0  0  0
   -1.9537   -2.8113    0.0000 O   0  0  0  0  0  0  0  0  0  0  0  0
    0.0760   -1.1895    0.0000 C   0  0  0  0  0  0  0  0  0  0  0  0
    1.2356   -2.1411    0.0000 C   0  0  0  0  0  0  0  0  0  0  0  0
    2.4989   -1.3324    0.0000 C   0  0  0  0  0  0  0  0  0  0  0  0
    3.9452   -1.7300    0.0000 C   0  0  0  0  0  0  0  0  0  0  0  0
    5.0127   -0.6763    0.0000 C   0  0  0  0  0  0  0  0  0  0  0  0
    4.6340    0.7751    0.0000 C   0  0  0  0  0  0  0  0  0  0  0  0
    3.1877    1.1728    0.0000 C   0  0  0  0  0  0  0  0  0  0  0  0
    2.8089    2.6241    0.0000 O   0  0  0  0  0  0  0  0  0  0  0  0
    2.1201    0.1190    0.0000 C   0  0  0  0  0  0  0  0  0  0  0  0
    0.6227    0.2073    0.0000 N   0  0  0  0  0  0  0  0  0  0  0  0
   -0.3137    1.3792    0.0000 C   0  0  0  0  0  0  0  0  0  0  0  0
    0.2330    2.7760    0.0000 O   0  0  0  0  0  0  0  0  0  0  0  0
   -1.7967    1.1542    0.0000 C   0  0  0  0  0  0  0  0  0  0  0  0
   -2.7330    2.3260    0.0000 C   0  0  0  0  0  0  0  0  0  0  0  0
   -2.1864    3.7229    0.0000 O   0  0  0  0  0  0  0  0  0  0  0  0
   -3.3564    0.7032    0.0000 S   0  0  0  0  0  0  0  0  0  0  0  0
   -3.5229   -0.7875    0.0000 S   0  0  0  0  0  0  0  0  0  0  0  0
   -2.5866   -1.9593    0.0000 S   0  0  0  0  0  0  0  0  0  0  0  0
   -1.0958   -2.1259    0.0000 S   0  0  0  0  0  0  0  0  0  0  0  0
  1  2  1  0
  2  3  1  0
  3  4  2  0
  3  5  1  0
  5  6  1  1
  6  7  1  0
  7  8  2  0
  8  9  1  0
  9 10  2  0
 10 11  1  0
 11 12  1  1
 11 13  1  0
 13 14  1  6
 14 15  1  0
 15 16  2  0
 15 17  1  0
 17 18  1  6
 18 19  1  0
 17 20  1  0
 20 21  1  0
 21 22  1  0
 22 23  1  0
 17  2  1  0
 14  5  1  0
 23  5  1  0
 13  7  1  0
M  END
