
     RDKit          2D

 23 24  0  0  0  0  0  0  0  0999 V2000
   -4.6816   -3.4719    0.0000 C   0  0  0  0  0  0  0  0  0  0  0  0
   -5.9076   -2.6077    0.0000 O   0  0  0  0  0  0  0  0  0  0  0  0
   -5.7721   -1.1138    0.0000 C   0  0  0  0  0  0  0  0  0  0  0  0
   -6.9982   -0.2496    0.0000 C   0  0  0  0  0  0  0  0  0  0  0  0
   -8.3596   -0.8792    0.0000 O   0  0  0  0  0  0  0  0  0  0  0  0
   -6.8627    1.2443    0.0000 C   0  0  0  0  0  0  0  0  0  0  0  0
   -5.5013    1.8740    0.0000 C   0  0  0  0  0  0  0  0  0  0  0  0
   -4.2752    1.0097    0.0000 C   0  0  0  0  0  0  0  0  0  0  0  0
   -2.9138    1.6394    0.0000 C   0  0  0  0  0  0  0  0  0  0  0  0
   -1.6878    0.7751    0.0000 C   0  0  0  0  0  0  0  0  0  0  0  0
   -0.3263    1.4048    0.0000 C   0  0  0  0  0  0  0  0  0  0  0  0
    0.8997    0.5405    0.0000 O   0  0  0  0  0  0  0  0  0  0  0  0
    2.2611    1.1702    0.0000 C   0  0  0  0  0  0  0  0  0  0  0  0
    2.3966    2.6641    0.0000 O   0  0  0  0  0  0  0  0  0  0  0  0
    3.4871    0.3059    0.0000 C   0  0  0  0  0  0  0  0  0  0  0  0
    4.8486    0.9356    0.0000 C   0  0  0  0  0  0  0  0  0  0  0  0
    6.0746    0.0714    0.0000 C   0  0  0  0  0  0  0  0  0  0  0  0
    5.9392   -1.4225    0.0000 C   0  0  0  0  0  0  0  0  0  0  0  0
    7.1652   -2.2867    0.0000 C   0  0  0  0  0  0  0  0  0  0  0  0
    8.5266   -1.6571    0.0000 C   0  0  0  0  0  0  0  0  0  0  0  0
    8.6621   -0.1632    0.0000 C   0  0  0  0  0  0  0  0  0  0  0  0
    7.4361    0.7010    0.0000 C   0  0  0  0  0  0  0  0  0  0  0  0
   -4.4107   -0.4842    0.0000 C   0  0  0  0  0  0  0  0  0  0  0  0
  1  2  1  0
  2  3  1  0
  3  4  2  0
  4  5  1  0
  4  6  1  0
  6  7  2  0
  7  8  1  0
  8  9  1  0
  9 10  2  3
 10 11  1  0
 11 12  1  0
 12 13  1  0
 13 14  2  0
 13 15  1  0
 15 16  2  3
 16 17  1  0
 17 18  2  0
 18 19  1  0
 19 20  2  0
 20 21  1  0
 21 22  2  0
  8 23  1  0
 23  3  1  0
 22 17  1  0
M  END
