
     RDKit          2D

 23 24  0  0  0  0  0  0  0  0999 V2000
    0.1985    1.5291    0.0000 O   0  0  0  0  0  0  0  0  0  0  0  0
   -0.5260    0.2157    0.0000 C   0  0  0  0  0  0  0  0  0  0  0  0
    0.2492   -1.0685    0.0000 O   0  0  0  0  0  0  0  0  0  0  0  0
    1.7489   -1.0392    0.0000 C   0  0  0  0  0  0  0  0  0  0  0  0
    2.5241   -2.3234    0.0000 C   0  0  0  0  0  0  0  0  0  0  0  0
    1.7996   -3.6368    0.0000 O   0  0  0  0  0  0  0  0  0  0  0  0
    4.0238   -2.2941    0.0000 C   0  0  0  0  0  0  0  0  0  0  0  0
    4.7483   -0.9807    0.0000 C   0  0  0  0  0  0  0  0  0  0  0  0
    3.9731    0.3035    0.0000 C   0  0  0  0  0  0  0  0  0  0  0  0
    4.6976    1.6169    0.0000 C   0  0  0  0  0  0  0  0  0  0  0  0
    3.9224    2.9011    0.0000 O   0  0  0  0  0  0  0  0  0  0  0  0
    6.1973    1.6462    0.0000 O   0  0  0  0  0  0  0  0  0  0  0  0
    2.4734    0.2742    0.0000 C   0  0  0  0  0  0  0  0  0  0  0  0
    1.6982    1.5584    0.0000 O   0  0  0  0  0  0  0  0  0  0  0  0
   -2.0258    0.1864    0.0000 C   0  0  0  0  0  0  0  0  0  0  0  0
   -2.8010    1.4706    0.0000 C   0  0  0  0  0  0  0  0  0  0  0  0
   -4.3007    1.4413    0.0000 C   0  0  0  0  0  0  0  0  0  0  0  0
   -5.0759    2.7255    0.0000 O   0  0  0  0  0  0  0  0  0  0  0  0
   -5.0252    0.1279    0.0000 C   0  0  0  0  0  0  0  0  0  0  0  0
   -6.5249    0.0986    0.0000 O   0  0  0  0  0  0  0  0  0  0  0  0
   -4.2500   -1.1562    0.0000 C   0  0  0  0  0  0  0  0  0  0  0  0
   -4.9745   -2.4697    0.0000 O   0  0  0  0  0  0  0  0  0  0  0  0
   -2.7503   -1.1270    0.0000 C   0  0  0  0  0  0  0  0  0  0  0  0
  1  2  2  0
  2  3  1  0
  3  4  1  0
  4  5  2  0
  5  6  1  0
  5  7  1  0
  7  8  2  0
  8  9  1  0
  9 10  1  0
 10 11  2  0
 10 12  1  0
  9 13  2  0
 13 14  1  0
  2 15  1  0
 15 16  2  0
 16 17  1  0
 17 18  1  0
 17 19  2  0
 19 20  1  0
 19 21  1  0
 21 22  1  0
 21 23  2  0
 13  4  1  0
 23 15  1  0
M  END
