
     RDKit          2D

 23 27  0  0  0  0  0  0  0  0999 V2000
   -4.9217   -1.8791    0.0000 C   0  0  0  0  0  0  0  0  0  0  0  0
   -4.0809   -0.6370    0.0000 O   0  0  0  0  0  0  0  0  0  0  0  0
   -2.5847   -0.7441    0.0000 C   0  0  0  0  0  0  0  0  0  0  0  0
   -1.9294   -2.0934    0.0000 C   0  0  0  0  0  0  0  0  0  0  0  0
   -0.4332   -2.2005    0.0000 C   0  0  0  0  0  0  0  0  0  0  0  0
    0.4076   -0.9583    0.0000 C   0  0  0  0  0  0  0  0  0  0  0  0
   -0.4085   -0.8493    0.0000 C   0  0  0  0  0  0  0  0  0  0  0  0
   -1.7614   -0.7525    0.0000 O   0  0  0  0  0  0  0  0  0  0  0  0
    1.9021   -0.7660    0.0000 C   0  0  0  0  0  0  0  0  0  0  0  0
    2.6948   -2.0394    0.0000 C   0  0  0  0  0  0  0  0  0  0  0  0
    4.1940   -1.9896    0.0000 C   0  0  0  0  0  0  0  0  0  0  0  0
    4.9004   -0.6663    0.0000 C   0  0  0  0  0  0  0  0  0  0  0  0
    4.1076    0.6071    0.0000 C   0  0  0  0  0  0  0  0  0  0  0  0
    4.8141    1.9303    0.0000 O   0  0  0  0  0  0  0  0  0  0  0  0
    2.6085    0.5572    0.0000 C   0  0  0  0  0  0  0  0  0  0  0  0
    1.8157    1.8306    0.0000 C   0  0  0  0  0  0  0  0  0  0  0  0
    0.3165    1.7808    0.0000 C   0  0  0  0  0  0  0  0  0  0  0  0
   -0.8309    2.7469    0.0000 O   0  0  0  0  0  0  0  0  0  0  0  0
   -2.1043    1.9541    0.0000 C   0  0  0  0  0  0  0  0  0  0  0  0
   -3.4941    2.5183    0.0000 O   0  0  0  0  0  0  0  0  0  0  0  0
   -1.7438    0.4981    0.0000 C   0  0  0  0  0  0  0  0  0  0  0  0
   -3.2206    0.7610    0.0000 C   0  0  0  0  0  0  0  0  0  0  0  0
   -0.2477    0.3909    0.0000 C   0  0  0  0  0  0  0  0  0  0  0  0
  1  2  1  0
  3  2  1  1
  3  4  1  0
  4  5  1  0
  5  6  1  0
  6  7  1  0
  7  8  1  0
  6  9  1  6
  9 10  1  0
 10 11  1  0
 11 12  1  0
 12 13  1  0
 13 14  1  1
 13 15  1  0
 15 16  1  0
 17 16  1  6
 17 18  1  0
 18 19  1  0
 19 20  2  0
 19 21  1  0
 21 22  1  1
 21 23  1  0
  8  3  1  0
 15  9  1  0
 23 17  1  0
 21  3  1  0
 23  6  1  0
M  END
