
     RDKit          2D

 23 25  0  0  0  0  0  0  0  0999 V2000
   -6.8896    1.8368    0.0000 C   0  0  0  0  0  0  0  0  0  0  0  0
   -6.2422    0.4837    0.0000 O   0  0  0  0  0  0  0  0  0  0  0  0
   -4.7466    0.3678    0.0000 C   0  0  0  0  0  0  0  0  0  0  0  0
   -3.8985    1.6050    0.0000 C   0  0  0  0  0  0  0  0  0  0  0  0
   -2.4030    1.4891    0.0000 C   0  0  0  0  0  0  0  0  0  0  0  0
   -1.7556    0.1360    0.0000 C   0  0  0  0  0  0  0  0  0  0  0  0
   -0.2601    0.0202    0.0000 C   0  0  0  0  0  0  0  0  0  0  0  0
    0.3873   -1.3329    0.0000 C   0  0  0  0  0  0  0  0  0  0  0  0
    1.8828   -1.4488    0.0000 O   0  0  0  0  0  0  0  0  0  0  0  0
    2.7309   -0.2116    0.0000 C   0  0  0  0  0  0  0  0  0  0  0  0
    2.0835    1.1415    0.0000 C   0  0  0  0  0  0  0  0  0  0  0  0
    2.9317    2.3787    0.0000 C   0  0  0  0  0  0  0  0  0  0  0  0
    4.4272    2.2628    0.0000 C   0  0  0  0  0  0  0  0  0  0  0  0
    5.0746    0.9097    0.0000 C   0  0  0  0  0  0  0  0  0  0  0  0
    6.5701    0.7938    0.0000 O   0  0  0  0  0  0  0  0  0  0  0  0
    4.2265   -0.3275    0.0000 C   0  0  0  0  0  0  0  0  0  0  0  0
    4.8739   -1.6806    0.0000 O   0  0  0  0  0  0  0  0  0  0  0  0
    4.0257   -2.9178    0.0000 C   0  0  0  0  0  0  0  0  0  0  0  0
    0.5880    1.2574    0.0000 C   0  0  0  0  0  0  0  0  0  0  0  0
   -2.6037   -1.1012    0.0000 C   0  0  0  0  0  0  0  0  0  0  0  0
   -1.9563   -2.4543    0.0000 O   0  0  0  0  0  0  0  0  0  0  0  0
   -4.0992   -0.9853    0.0000 C   0  0  0  0  0  0  0  0  0  0  0  0
   -4.9474   -2.2225    0.0000 O   0  0  0  0  0  0  0  0  0  0  0  0
  1  2  1  0
  2  3  1  0
  3  4  2  0
  4  5  1  0
  5  6  2  0
  7  6  1  6
  7  8  1  0
  8  9  1  0
  9 10  1  0
 10 11  2  0
 11 12  1  0
 12 13  2  0
 13 14  1  0
 14 15  1  0
 14 16  2  0
 16 17  1  0
 17 18  1  0
 11 19  1  0
  6 20  1  0
 20 21  1  0
 20 22  2  0
 22 23  1  0
 22  3  1  0
 19  7  1  0
 16 10  1  0
M  END
