
     RDKit          2D

 23 27  0  0  0  0  0  0  0  0999 V2000
    1.8713   -1.8464    0.0000 C   0  0  0  0  0  0  0  0  0  0  0  0
    2.5323   -0.4999    0.0000 C   0  0  0  0  0  0  0  0  0  0  0  0
    2.0456    0.6265    0.0000 C   0  0  0  0  0  0  0  0  0  0  0  0
    1.9101    1.8461    0.0000 C   0  0  0  0  0  0  0  0  0  0  0  0
    0.7046    2.4560    0.0000 C   0  0  0  0  0  0  0  0  0  0  0  0
   -0.7127    1.9650    0.0000 C   0  0  0  0  0  0  0  0  0  0  0  0
   -0.9961    0.4920    0.0000 C   0  0  0  0  0  0  0  0  0  0  0  0
   -2.4135    0.0009    0.0000 C   0  0  0  0  0  0  0  0  0  0  0  0
   -3.9133    0.0242    0.0000 C   0  0  0  0  0  0  0  0  0  0  0  0
   -4.6430    1.3348    0.0000 O   0  0  0  0  0  0  0  0  0  0  0  0
   -2.6510    1.4820    0.0000 C   0  0  0  0  0  0  0  0  0  0  0  0
   -1.4871    2.4282    0.0000 O   0  0  0  0  0  0  0  0  0  0  0  0
   -2.6969   -1.4721    0.0000 C   0  0  0  0  0  0  0  0  0  0  0  0
   -4.1142   -1.9631    0.0000 O   0  0  0  0  0  0  0  0  0  0  0  0
   -1.5629   -2.4540    0.0000 C   0  0  0  0  0  0  0  0  0  0  0  0
   -0.1456   -1.9629    0.0000 C   0  0  0  0  0  0  0  0  0  0  0  0
    0.1378   -0.4899    0.0000 C   0  0  0  0  0  0  0  0  0  0  0  0
    1.1436   -1.6028    0.0000 C   0  0  0  0  0  0  0  0  0  0  0  0
    1.5551    0.0011    0.0000 C   0  0  0  0  0  0  0  0  0  0  0  0
    2.3689   -1.2590    0.0000 C   0  0  0  0  0  0  0  0  0  0  0  0
    3.8670   -1.1843    0.0000 C   0  0  0  0  0  0  0  0  0  0  0  0
    3.7923    0.3138    0.0000 C   0  0  0  0  0  0  0  0  0  0  0  0
    3.4078    1.7637    0.0000 C   0  0  0  0  0  0  0  0  0  0  0  0
  2  1  1  6
  2  3  1  0
  3  4  1  0
  4  5  1  0
  5  6  1  0
  7  6  1  1
  7  8  1  0
  8  9  1  0
  9 10  1  0
  8 11  1  0
 11 12  1  0
  8 13  1  0
 13 14  1  1
 13 15  1  0
 15 16  1  0
 16 17  1  0
 17 18  1  1
 17 19  1  0
 19 20  1  0
 21 20  1  1
 21 22  1  0
 22 23  1  1
 21  2  1  0
 22  2  1  0
 19  4  1  0
 23  4  1  0
 17  7  1  0
M  END
