
     RDKit          2D

 24 27  0  0  0  0  0  0  0  0999 V2000
    5.7290   -0.7771    0.0000 C   0  0  0  0  0  0  0  0  0  0  0  0
    4.3103   -1.2641    0.0000 C   0  0  0  0  0  0  0  0  0  0  0  0
    4.0228   -2.7363    0.0000 C   0  0  0  0  0  0  0  0  0  0  0  0
    3.1792   -0.2790    0.0000 C   0  0  0  0  0  0  0  0  0  0  0  0
    3.5759    1.1676    0.0000 C   0  0  0  0  0  0  0  0  0  0  0  0
    2.6924    2.3797    0.0000 C   0  0  0  0  0  0  0  0  0  0  0  0
    3.4011    3.7017    0.0000 O   0  0  0  0  0  0  0  0  0  0  0  0
    1.1938    2.4446    0.0000 C   0  0  0  0  0  0  0  0  0  0  0  0
    0.2086    1.3135    0.0000 C   0  0  0  0  0  0  0  0  0  0  0  0
    0.4788   -0.1620    0.0000 C   0  0  0  0  0  0  0  0  0  0  0  0
    1.8008   -0.8707    0.0000 C   0  0  0  0  0  0  0  0  0  0  0  0
   -0.6639   -1.1337    0.0000 C   0  0  0  0  0  0  0  0  0  0  0  0
   -0.7064   -2.6331    0.0000 C   0  0  0  0  0  0  0  0  0  0  0  0
    0.4816   -3.5488    0.0000 O   0  0  0  0  0  0  0  0  0  0  0  0
   -2.1456   -3.0560    0.0000 O   0  0  0  0  0  0  0  0  0  0  0  0
   -2.9925   -1.8180    0.0000 C   0  0  0  0  0  0  0  0  0  0  0  0
   -4.2698   -1.0314    0.0000 C   0  0  0  0  0  0  0  0  0  0  0  0
   -3.9165    0.4263    0.0000 C   0  0  0  0  0  0  0  0  0  0  0  0
   -5.4032    0.6254    0.0000 C   0  0  0  0  0  0  0  0  0  0  0  0
   -3.8739    1.9257    0.0000 O   0  0  0  0  0  0  0  0  0  0  0  0
   -2.3470    0.8456    0.0000 C   0  0  0  0  0  0  0  0  0  0  0  0
   -1.2042    1.8173    0.0000 C   0  0  0  0  0  0  0  0  0  0  0  0
   -1.4744    3.2927    0.0000 O   0  0  0  0  0  0  0  0  0  0  0  0
   -2.0768   -0.6299    0.0000 C   0  0  0  0  0  0  0  0  0  0  0  0
  1  2  2  0
  2  3  1  0
  4  2  1  6
  4  5  1  0
  5  6  1  0
  6  7  2  0
  6  8  1  0
  8  9  1  0
  9 10  2  0
 10 11  1  0
 10 12  1  0
 12 13  1  1
 13 14  2  0
 13 15  1  0
 15 16  1  0
 16 17  1  1
 17 18  1  0
 18 19  1  6
 18 20  1  0
 18 21  1  0
 21 22  1  1
 22 23  2  0
 21 24  1  0
 11  4  1  0
 24 12  1  1
 22  9  1  0
 24 16  1  0
M  END
