
     RDKit          2D

 24 26  0  0  0  0  0  0  0  0999 V2000
    0.3376   -3.6217    0.0000 C   0  0  0  0  0  0  0  0  0  0  0  0
    1.0673   -2.3111    0.0000 O   0  0  0  0  0  0  0  0  0  0  0  0
    0.2972   -1.0239    0.0000 C   0  0  0  0  0  0  0  0  0  0  0  0
   -1.2026   -1.0472    0.0000 C   0  0  0  0  0  0  0  0  0  0  0  0
   -1.9323   -2.3578    0.0000 O   0  0  0  0  0  0  0  0  0  0  0  0
   -1.9727    0.2400    0.0000 C   0  0  0  0  0  0  0  0  0  0  0  0
   -3.4725    0.2167    0.0000 C   0  0  0  0  0  0  0  0  0  0  0  0
   -4.2426    1.5039    0.0000 C   0  0  0  0  0  0  0  0  0  0  0  0
   -5.7425    1.4806    0.0000 C   0  0  0  0  0  0  0  0  0  0  0  0
   -6.4722    0.1701    0.0000 C   0  0  0  0  0  0  0  0  0  0  0  0
   -5.7021   -1.1171    0.0000 C   0  0  0  0  0  0  0  0  0  0  0  0
   -4.2023   -1.0938    0.0000 C   0  0  0  0  0  0  0  0  0  0  0  0
   -1.2430    1.5505    0.0000 C   0  0  0  0  0  0  0  0  0  0  0  0
    0.2568    1.5739    0.0000 C   0  0  0  0  0  0  0  0  0  0  0  0
    0.9865    2.8844    0.0000 O   0  0  0  0  0  0  0  0  0  0  0  0
    1.0269    0.2866    0.0000 C   0  0  0  0  0  0  0  0  0  0  0  0
    2.5267    0.3099    0.0000 C   0  0  0  0  0  0  0  0  0  0  0  0
    3.2968   -0.9773    0.0000 C   0  0  0  0  0  0  0  0  0  0  0  0
    4.7967   -0.9540    0.0000 C   0  0  0  0  0  0  0  0  0  0  0  0
    5.5667   -2.2412    0.0000 O   0  0  0  0  0  0  0  0  0  0  0  0
    5.5264    0.3566    0.0000 C   0  0  0  0  0  0  0  0  0  0  0  0
    4.7563    1.6438    0.0000 C   0  0  0  0  0  0  0  0  0  0  0  0
    3.2565    1.6205    0.0000 C   0  0  0  0  0  0  0  0  0  0  0  0
    2.4864    2.9077    0.0000 O   0  0  0  0  0  0  0  0  0  0  0  0
  1  2  1  0
  2  3  1  0
  3  4  2  0
  4  5  1  0
  4  6  1  0
  6  7  1  0
  7  8  2  0
  8  9  1  0
  9 10  2  0
 10 11  1  0
 11 12  2  0
  6 13  2  0
 13 14  1  0
 14 15  1  0
 14 16  2  0
 16 17  1  0
 17 18  2  0
 18 19  1  0
 19 20  1  0
 19 21  2  0
 21 22  1  0
 22 23  2  0
 23 24  1  0
 16  3  1  0
 23 17  1  0
 12  7  1  0
M  END
