
     RDKit          2D

 24 26  0  0  0  0  0  0  0  0999 V2000
   -7.4814    2.2301    0.0000 C   0  0  0  0  0  0  0  0  0  0  0  0
   -7.6506    0.7397    0.0000 O   0  0  0  0  0  0  0  0  0  0  0  0
   -6.4445   -0.1521    0.0000 C   0  0  0  0  0  0  0  0  0  0  0  0
   -6.4570   -1.6521    0.0000 N   0  0  0  0  0  0  0  0  0  0  0  0
   -5.0343   -2.1275    0.0000 O   0  0  0  0  0  0  0  0  0  0  0  0
   -4.1426   -0.9214    0.0000 C   0  0  0  0  0  0  0  0  0  0  0  0
   -2.6426   -0.9339    0.0000 C   0  0  0  0  0  0  0  0  0  0  0  0
   -1.8818    0.3589    0.0000 C   0  0  0  0  0  0  0  0  0  0  0  0
   -0.3818    0.3463    0.0000 C   0  0  0  0  0  0  0  0  0  0  0  0
    0.3573   -0.9589    0.0000 O   0  0  0  0  0  0  0  0  0  0  0  0
    0.3790    1.6391    0.0000 N   0  0  0  0  0  0  0  0  0  0  0  0
   -0.3602    2.9443    0.0000 C   0  0  0  0  0  0  0  0  0  0  0  0
    1.8789    1.6265    0.0000 C   0  0  0  0  0  0  0  0  0  0  0  0
    2.6181    0.3213    0.0000 C   0  0  0  0  0  0  0  0  0  0  0  0
    1.8572   -0.9714    0.0000 C   0  0  0  0  0  0  0  0  0  0  0  0
    2.5964   -2.2767    0.0000 C   0  0  0  0  0  0  0  0  0  0  0  0
    4.0963   -2.2892    0.0000 C   0  0  0  0  0  0  0  0  0  0  0  0
    4.8571   -0.9965    0.0000 N   0  0  0  0  0  0  0  0  0  0  0  0
    6.3571   -1.0090    0.0000 C   0  0  0  0  0  0  0  0  0  0  0  0
    7.1179    0.2837    0.0000 C   0  0  0  0  0  0  0  0  0  0  0  0
    6.3788    1.5890    0.0000 C   0  0  0  0  0  0  0  0  0  0  0  0
    4.8788    1.6015    0.0000 C   0  0  0  0  0  0  0  0  0  0  0  0
    4.1180    0.3088    0.0000 C   0  0  0  0  0  0  0  0  0  0  0  0
   -5.0141    0.2995    0.0000 C   0  0  0  0  0  0  0  0  0  0  0  0
  1  2  1  0
  2  3  1  0
  3  4  2  0
  4  5  1  0
  5  6  1  0
  6  7  1  0
  7  8  1  0
  8  9  1  0
  9 10  2  0
  9 11  1  0
 11 12  1  0
 11 13  1  0
 14 13  1  1
 14 15  1  0
 15 16  1  0
 16 17  1  0
 17 18  1  0
 18 19  1  0
 19 20  1  0
 20 21  1  0
 21 22  1  0
 23 22  1  1
  6 24  2  0
 24  3  1  0
 23 14  1  0
 23 18  1  0
M  END
