
     RDKit          2D

 24 27  0  0  0  0  0  0  0  0999 V2000
   -8.5212    0.1645    0.0000 C   0  0  0  0  0  0  0  0  0  0  0  0
   -7.0519   -0.1373    0.0000 C   0  0  0  0  0  0  0  0  0  0  0  0
   -6.0559    0.9843    0.0000 C   0  0  0  0  0  0  0  0  0  0  0  0
   -4.5865    0.6825    0.0000 N   0  0  0  0  0  0  0  0  0  0  0  0
   -3.3791    1.5724    0.0000 C   0  0  0  0  0  0  0  0  0  0  0  0
   -2.1596    0.6991    0.0000 C   0  0  0  0  0  0  0  0  0  0  0  0
   -0.7362    1.1724    0.0000 C   0  0  0  0  0  0  0  0  0  0  0  0
   -0.4344    2.6417    0.0000 O   0  0  0  0  0  0  0  0  0  0  0  0
    0.3854    0.1764    0.0000 N   0  0  0  0  0  0  0  0  0  0  0  0
    1.8088    0.6497    0.0000 C   0  0  0  0  0  0  0  0  0  0  0  0
    2.9303   -0.3464    0.0000 C   0  0  0  0  0  0  0  0  0  0  0  0
    2.6285   -1.8157    0.0000 C   0  0  0  0  0  0  0  0  0  0  0  0
    3.7501   -2.8117    0.0000 C   0  0  0  0  0  0  0  0  0  0  0  0
    5.1735   -2.3384    0.0000 C   0  0  0  0  0  0  0  0  0  0  0  0
    5.4753   -0.8691    0.0000 N   0  0  0  0  0  0  0  0  0  0  0  0
    6.8987   -0.3958    0.0000 C   0  0  0  0  0  0  0  0  0  0  0  0
    7.2005    1.0735    0.0000 C   0  0  0  0  0  0  0  0  0  0  0  0
    6.0789    2.0695    0.0000 C   0  0  0  0  0  0  0  0  0  0  0  0
    4.6555    1.5962    0.0000 C   0  0  0  0  0  0  0  0  0  0  0  0
    4.3537    0.1269    0.0000 C   0  0  0  0  0  0  0  0  0  0  0  0
   -2.6133   -0.7306    0.0000 N   0  0  0  0  0  0  0  0  0  0  0  0
   -4.1133   -0.7409    0.0000 C   0  0  0  0  0  0  0  0  0  0  0  0
   -5.1093   -1.8625    0.0000 C   0  0  0  0  0  0  0  0  0  0  0  0
   -6.5786   -1.5607    0.0000 C   0  0  0  0  0  0  0  0  0  0  0  0
  1  2  1  0
  2  3  2  0
  3  4  1  0
  4  5  1  0
  5  6  2  0
  6  7  1  0
  7  8  2  0
  7  9  1  0
  9 10  1  0
 11 10  1  1
 11 12  1  0
 12 13  1  0
 13 14  1  0
 14 15  1  0
 15 16  1  0
 16 17  1  0
 17 18  1  0
 18 19  1  0
 20 19  1  1
  6 21  1  0
 21 22  2  0
 22 23  1  0
 23 24  2  0
 24  2  1  0
 22  4  1  0
 20 11  1  0
 20 15  1  0
M  END
