
     RDKit          2D

 24 26  0  0  0  0  0  0  0  0999 V2000
    7.6558   -2.5155    0.0000 C   0  0  0  0  0  0  0  0  0  0  0  0
    6.9328   -1.2012    0.0000 O   0  0  0  0  0  0  0  0  0  0  0  0
    5.4332   -1.1701    0.0000 C   0  0  0  0  0  0  0  0  0  0  0  0
    4.7102    0.1442    0.0000 C   0  0  0  0  0  0  0  0  0  0  0  0
    5.4870    1.4274    0.0000 O   0  0  0  0  0  0  0  0  0  0  0  0
    3.2106    0.1753    0.0000 N   0  0  0  0  0  0  0  0  0  0  0  0
    2.4876    1.4896    0.0000 C   0  0  0  0  0  0  0  0  0  0  0  0
    0.9880    1.5207    0.0000 C   0  0  0  0  0  0  0  0  0  0  0  0
    0.2112    0.2374    0.0000 C   0  0  0  0  0  0  0  0  0  0  0  0
   -1.2885    0.2685    0.0000 C   0  0  0  0  0  0  0  0  0  0  0  0
   -2.0114    1.5828    0.0000 C   0  0  0  0  0  0  0  0  0  0  0  0
   -1.2346    2.8660    0.0000 C   0  0  0  0  0  0  0  0  0  0  0  0
    0.2650    2.8350    0.0000 N   0  0  0  0  0  0  0  0  0  0  0  0
   -0.8973    2.2527    0.0000 C   0  0  0  0  0  0  0  0  0  0  0  0
   -1.3115    1.5683    0.0000 C   0  0  0  0  0  0  0  0  0  0  0  0
   -3.5111    1.6139    0.0000 C   0  0  0  0  0  0  0  0  0  0  0  0
   -4.2878    0.3307    0.0000 N   0  0  0  0  0  0  0  0  0  0  0  0
   -5.7875    0.3618    0.0000 C   0  0  0  0  0  0  0  0  0  0  0  0
   -3.5649   -0.9836    0.0000 C   0  0  0  0  0  0  0  0  0  0  0  0
   -4.3417   -2.2668    0.0000 C   0  0  0  0  0  0  0  0  0  0  0  0
   -3.6187   -3.5811    0.0000 C   0  0  0  0  0  0  0  0  0  0  0  0
   -2.1191   -3.6122    0.0000 C   0  0  0  0  0  0  0  0  0  0  0  0
   -1.3423   -2.3290    0.0000 C   0  0  0  0  0  0  0  0  0  0  0  0
   -2.0652   -1.0147    0.0000 C   0  0  0  0  0  0  0  0  0  0  0  0
  1  2  1  0
  2  3  1  0
  3  4  1  0
  4  5  2  0
  4  6  1  0
  6  7  1  0
  8  7  1  1
  8  9  1  0
 10  9  1  6
 10 11  1  0
 11 12  1  0
 13 12  1  6
 13 14  1  0
 14 15  1  0
 15 16  1  1
 16 17  1  0
 17 18  1  0
 17 19  1  0
 19 20  2  0
 20 21  1  0
 21 22  2  0
 22 23  1  0
 23 24  2  0
 13  8  1  0
 24 19  1  0
 15 10  1  0
M  END
