
     RDKit          2D

 24 27  0  0  0  0  0  0  0  0999 V2000
   -1.2855    2.6020    0.0000 O   0  0  0  0  0  0  0  0  0  0  0  0
   -2.7681    2.3746    0.0000 C   0  0  0  0  0  0  0  0  0  0  0  0
   -3.7064    3.5450    0.0000 O   0  0  0  0  0  0  0  0  0  0  0  0
   -3.3126    0.9769    0.0000 C   0  0  0  0  0  0  0  0  0  0  0  0
   -4.7952    0.7495    0.0000 C   0  0  0  0  0  0  0  0  0  0  0  0
   -5.3397   -0.6482    0.0000 C   0  0  0  0  0  0  0  0  0  0  0  0
   -4.4014   -1.8185    0.0000 C   0  0  0  0  0  0  0  0  0  0  0  0
   -4.9458   -3.2162    0.0000 Br  0  0  0  0  0  0  0  0  0  0  0  0
   -2.9187   -1.5912    0.0000 C   0  0  0  0  0  0  0  0  0  0  0  0
   -2.3743   -0.1934    0.0000 C   0  0  0  0  0  0  0  0  0  0  0  0
   -0.8917    0.0339    0.0000 N   0  0  0  0  0  0  0  0  0  0  0  0
   -0.3472    1.4316    0.0000 C   0  0  0  0  0  0  0  0  0  0  0  0
    1.1354    1.6590    0.0000 C   0  0  0  0  0  0  0  0  0  0  0  0
    2.0737    0.4887    0.0000 C   0  0  0  0  0  0  0  0  0  0  0  0
    1.5293   -0.9091    0.0000 C   0  0  0  0  0  0  0  0  0  0  0  0
    2.6903   -1.8588    0.0000 N   0  0  0  0  0  0  0  0  0  0  0  0
    3.9523   -1.0480    0.0000 C   0  0  0  0  0  0  0  0  0  0  0  0
    5.3993   -1.4433    0.0000 C   0  0  0  0  0  0  0  0  0  0  0  0
    6.4652   -0.3879    0.0000 C   0  0  0  0  0  0  0  0  0  0  0  0
    6.0841    1.0629    0.0000 C   0  0  0  0  0  0  0  0  0  0  0  0
    4.6371    1.4582    0.0000 C   0  0  0  0  0  0  0  0  0  0  0  0
    3.5712    0.4028    0.0000 C   0  0  0  0  0  0  0  0  0  0  0  0
    0.0466   -1.1364    0.0000 C   0  0  0  0  0  0  0  0  0  0  0  0
   -0.4978   -2.5341    0.0000 O   0  0  0  0  0  0  0  0  0  0  0  0
  1  2  2  0
  2  3  1  0
  2  4  1  0
  4  5  2  0
  5  6  1  0
  6  7  2  0
  7  8  1  0
  7  9  1  0
  9 10  2  0
 10 11  1  0
 11 12  1  0
 12 13  2  0
 13 14  1  0
 14 15  2  0
 15 16  1  0
 16 17  1  0
 17 18  2  0
 18 19  1  0
 19 20  2  0
 20 21  1  0
 21 22  2  0
 15 23  1  0
 23 24  2  0
 10  4  1  0
 23 11  1  0
 22 14  1  0
 22 17  1  0
M  END
