
     RDKit          2D

 24 26  0  0  0  0  0  0  0  0999 V2000
   -3.1488    3.5891    0.0000 C   0  0  0  0  0  0  0  0  0  0  0  0
   -3.1906    2.0897    0.0000 O   0  0  0  0  0  0  0  0  0  0  0  0
   -1.9130    1.3038    0.0000 C   0  0  0  0  0  0  0  0  0  0  0  0
   -0.5935    2.0173    0.0000 C   0  0  0  0  0  0  0  0  0  0  0  0
    0.6841    1.2314    0.0000 C   0  0  0  0  0  0  0  0  0  0  0  0
    0.6423   -0.2680    0.0000 C   0  0  0  0  0  0  0  0  0  0  0  0
   -0.6771   -0.9815    0.0000 C   0  0  0  0  0  0  0  0  0  0  0  0
   -0.7189   -2.4809    0.0000 O   0  0  0  0  0  0  0  0  0  0  0  0
   -1.9548   -0.1956    0.0000 C   0  0  0  0  0  0  0  0  0  0  0  0
   -3.2742   -0.9091    0.0000 C   0  0  0  0  0  0  0  0  0  0  0  0
   -4.5518   -0.1232    0.0000 C   0  0  0  0  0  0  0  0  0  0  0  0
   -5.8713   -0.8367    0.0000 C   0  0  0  0  0  0  0  0  0  0  0  0
   -7.1489   -0.0508    0.0000 C   0  0  0  0  0  0  0  0  0  0  0  0
   -5.9131   -2.3361    0.0000 C   0  0  0  0  0  0  0  0  0  0  0  0
    1.9199   -1.0539    0.0000 C   0  0  0  0  0  0  0  0  0  0  0  0
    1.8781   -2.5533    0.0000 O   0  0  0  0  0  0  0  0  0  0  0  0
    3.2394   -0.3404    0.0000 C   0  0  0  0  0  0  0  0  0  0  0  0
    4.5170   -1.1263    0.0000 C   0  0  0  0  0  0  0  0  0  0  0  0
    4.4752   -2.6257    0.0000 O   0  0  0  0  0  0  0  0  0  0  0  0
    5.8364   -0.4128    0.0000 C   0  0  0  0  0  0  0  0  0  0  0  0
    5.8782    1.0866    0.0000 C   0  0  0  0  0  0  0  0  0  0  0  0
    4.6006    1.8725    0.0000 C   0  0  0  0  0  0  0  0  0  0  0  0
    3.2812    1.1590    0.0000 C   0  0  0  0  0  0  0  0  0  0  0  0
    2.0035    1.9449    0.0000 O   0  0  0  0  0  0  0  0  0  0  0  0
  1  2  1  0
  2  3  1  0
  3  4  2  0
  4  5  1  0
  5  6  2  0
  6  7  1  0
  7  8  1  0
  7  9  2  0
  9 10  1  0
 10 11  1  0
 11 12  2  0
 12 13  1  0
 12 14  1  0
  6 15  1  0
 15 16  2  0
 15 17  1  0
 17 18  2  0
 18 19  1  0
 18 20  1  0
 20 21  2  0
 21 22  1  0
 22 23  2  0
 23 24  1  0
  9  3  1  0
 23 17  1  0
 24  5  1  0
M  END
