
     RDKit          2D

 24 28  0  0  0  0  0  0  0  0999 V2000
   -4.7969   -1.1738    0.0000 C   0  0  0  0  0  0  0  0  0  0  0  0
   -3.4264   -0.5641    0.0000 C   0  0  0  0  0  0  0  0  0  0  0  0
   -2.1276   -1.3145    0.0000 C   0  0  0  0  0  0  0  0  0  0  0  0
   -1.9712   -2.8063    0.0000 O   0  0  0  0  0  0  0  0  0  0  0  0
   -1.0125   -0.3112    0.0000 C   0  0  0  0  0  0  0  0  0  0  0  0
   -0.2629   -1.6104    0.0000 C   0  0  0  0  0  0  0  0  0  0  0  0
    1.2371   -1.6109    0.0000 C   0  0  0  0  0  0  0  0  0  0  0  0
    1.9875   -0.3121    0.0000 C   0  0  0  0  0  0  0  0  0  0  0  0
    3.4875   -0.3126    0.0000 C   0  0  0  0  0  0  0  0  0  0  0  0
    4.2370   -1.6118    0.0000 C   0  0  0  0  0  0  0  0  0  0  0  0
    4.2379    0.9862    0.0000 C   0  0  0  0  0  0  0  0  0  0  0  0
    3.4883    2.2855    0.0000 C   0  0  0  0  0  0  0  0  0  0  0  0
    1.9883    2.2860    0.0000 C   0  0  0  0  0  0  0  0  0  0  0  0
    1.2379    0.9872    0.0000 C   0  0  0  0  0  0  0  0  0  0  0  0
    0.9255   -0.4799    0.0000 O   0  0  0  0  0  0  0  0  0  0  0  0
    2.2243   -1.2304    0.0000 C   0  0  0  0  0  0  0  0  0  0  0  0
    2.3807   -2.7222    0.0000 O   0  0  0  0  0  0  0  0  0  0  0  0
   -0.2621    0.9876    0.0000 C   0  0  0  0  0  0  0  0  0  0  0  0
    0.4883    2.2864    0.0000 C   0  0  0  0  0  0  0  0  0  0  0  0
   -1.0117    2.2869    0.0000 C   0  0  0  0  0  0  0  0  0  0  0  0
   -2.5117    2.2874    0.0000 C   0  0  0  0  0  0  0  0  0  0  0  0
   -3.2621    0.9886    0.0000 C   0  0  0  0  0  0  0  0  0  0  0  0
   -4.7621    0.9890    0.0000 O   0  0  0  0  0  0  0  0  0  0  0  0
   -2.5125   -0.3107    0.0000 C   0  0  0  0  0  0  0  0  0  0  0  0
  1  2  2  0
  2  3  1  0
  3  4  2  0
  3  5  1  0
  5  6  1  1
  6  7  1  0
  8  7  1  1
  8  9  1  0
  9 10  1  6
  9 11  1  0
 11 12  1  0
 12 13  1  0
 14 13  1  1
 14 15  1  0
 15 16  1  0
 16 17  2  0
 14 18  1  0
 18 19  1  1
 18 20  1  0
 20 21  1  0
 21 22  1  0
 22 23  1  1
 22 24  1  0
 22  2  1  0
 18  5  1  0
 24  5  1  0
 14  8  1  0
 16  9  1  0
M  END
