
     RDKit          2D

 24 25  0  0  0  0  0  0  0  0999 V2000
   -5.1119    1.1041    0.0000 C   0  0  0  0  0  0  0  0  0  0  0  0
   -3.6239    1.2932    0.0000 C   0  0  0  0  0  0  0  0  0  0  0  0
   -3.0435    2.6764    0.0000 C   0  0  0  0  0  0  0  0  0  0  0  0
   -1.5555    2.8654    0.0000 C   0  0  0  0  0  0  0  0  0  0  0  0
   -0.6478    1.6712    0.0000 C   0  0  0  0  0  0  0  0  0  0  0  0
   -1.2281    0.2880    0.0000 C   0  0  0  0  0  0  0  0  0  0  0  0
   -0.3204   -0.9062    0.0000 C   0  0  0  0  0  0  0  0  0  0  0  0
    0.9410   -1.7179    0.0000 C   0  0  0  0  0  0  0  0  0  0  0  0
    0.6980    0.1951    0.0000 C   0  0  0  0  0  0  0  0  0  0  0  0
    2.1610   -0.1362    0.0000 C   0  0  0  0  0  0  0  0  0  0  0  0
    3.1794    0.9651    0.0000 C   0  0  0  0  0  0  0  0  0  0  0  0
    4.6423    0.6338    0.0000 C   0  0  0  0  0  0  0  0  0  0  0  0
    5.0869   -0.7988    0.0000 C   0  0  0  0  0  0  0  0  0  0  0  0
    4.0685   -1.9001    0.0000 O   0  0  0  0  0  0  0  0  0  0  0  0
    6.5498   -1.1301    0.0000 O   0  0  0  0  0  0  0  0  0  0  0  0
    2.7348    2.3977    0.0000 C   0  0  0  0  0  0  0  0  0  0  0  0
    3.7532    3.4990    0.0000 O   0  0  0  0  0  0  0  0  0  0  0  0
   -0.9007   -2.2894    0.0000 C   0  0  0  0  0  0  0  0  0  0  0  0
    0.0070   -3.4835    0.0000 C   0  0  0  0  0  0  0  0  0  0  0  0
   -2.3888   -2.4784    0.0000 C   0  0  0  0  0  0  0  0  0  0  0  0
   -3.2965   -1.2842    0.0000 C   0  0  0  0  0  0  0  0  0  0  0  0
   -4.7845   -1.4732    0.0000 O   0  0  0  0  0  0  0  0  0  0  0  0
   -2.7162    0.0990    0.0000 C   0  0  0  0  0  0  0  0  0  0  0  0
   -4.2042   -0.0900    0.0000 C   0  0  0  0  0  0  0  0  0  0  0  0
  1  2  2  0
  2  3  1  0
  3  4  1  0
  4  5  1  0
  6  5  1  6
  6  7  1  0
  7  8  1  6
  7  9  1  0
  9 10  1  0
 10 11  1  0
 11 12  2  0
 12 13  1  0
 13 14  2  0
 13 15  1  0
 11 16  1  0
 16 17  1  0
  7 18  1  0
 18 19  1  6
 18 20  1  0
 20 21  1  0
 21 22  1  6
 21 23  1  0
 23 24  1  6
 23  2  1  0
 23  6  1  0
M  END
