
     RDKit          2D

 24 27  0  0  0  0  0  0  0  0999 V2000
   -1.3309    3.3491    0.0000 C   0  0  0  0  0  0  0  0  0  0  0  0
   -0.9207    1.9063    0.0000 C   0  0  0  0  0  0  0  0  0  0  0  0
   -1.9652    0.8296    0.0000 C   0  0  0  0  0  0  0  0  0  0  0  0
   -3.4198    1.1958    0.0000 C   0  0  0  0  0  0  0  0  0  0  0  0
   -4.4642    0.1192    0.0000 C   0  0  0  0  0  0  0  0  0  0  0  0
   -5.9188    0.4854    0.0000 C   0  0  0  0  0  0  0  0  0  0  0  0
   -6.9633   -0.5913    0.0000 C   0  0  0  0  0  0  0  0  0  0  0  0
   -6.5531   -2.0341    0.0000 C   0  0  0  0  0  0  0  0  0  0  0  0
   -5.0985   -2.4003    0.0000 C   0  0  0  0  0  0  0  0  0  0  0  0
   -4.0541   -1.3237    0.0000 C   0  0  0  0  0  0  0  0  0  0  0  0
   -1.5550   -0.6132    0.0000 C   0  0  0  0  0  0  0  0  0  0  0  0
   -2.5994   -1.6899    0.0000 O   0  0  0  0  0  0  0  0  0  0  0  0
   -0.1004   -0.9794    0.0000 O   0  0  0  0  0  0  0  0  0  0  0  0
    0.9440    0.0972    0.0000 C   0  0  0  0  0  0  0  0  0  0  0  0
    2.3987   -0.2690    0.0000 C   0  0  0  0  0  0  0  0  0  0  0  0
    3.4431    0.8077    0.0000 C   0  0  0  0  0  0  0  0  0  0  0  0
    4.8977    0.4415    0.0000 O   0  0  0  0  0  0  0  0  0  0  0  0
    5.3079   -1.0013    0.0000 C   0  0  0  0  0  0  0  0  0  0  0  0
    6.7625   -1.3675    0.0000 C   0  0  0  0  0  0  0  0  0  0  0  0
    8.2053   -0.9574    0.0000 C   0  0  0  0  0  0  0  0  0  0  0  0
    7.8391   -2.4120    0.0000 O   0  0  0  0  0  0  0  0  0  0  0  0
    3.0329    2.2505    0.0000 C   0  0  0  0  0  0  0  0  0  0  0  0
    1.5783    2.6167    0.0000 C   0  0  0  0  0  0  0  0  0  0  0  0
    0.5339    1.5401    0.0000 C   0  0  0  0  0  0  0  0  0  0  0  0
  1  2  1  0
  2  3  2  0
  3  4  1  0
  4  5  1  0
  5  6  2  0
  6  7  1  0
  7  8  2  0
  8  9  1  0
  9 10  2  0
  3 11  1  0
 11 12  2  0
 11 13  1  0
 13 14  1  0
 14 15  2  0
 15 16  1  0
 16 17  1  0
 17 18  1  0
 19 18  1  1
 19 20  1  0
 20 21  1  0
 16 22  2  0
 22 23  1  0
 23 24  2  0
 24  2  1  0
 10  5  1  0
 24 14  1  0
 21 19  1  0
M  END
