
     RDKit          2D

 24 29  0  0  0  0  0  0  0  0999 V2000
   -4.7930   -0.1642    0.0000 C   0  0  0  0  0  0  0  0  0  0  0  0
   -2.6860    0.4686    0.0000 C   0  0  0  0  0  0  0  0  0  0  0  0
   -2.1630   -0.6414    0.0000 C   0  0  0  0  0  0  0  0  0  0  0  0
   -0.9300    0.2129    0.0000 C   0  0  0  0  0  0  0  0  0  0  0  0
   -1.3614    1.6495    0.0000 C   0  0  0  0  0  0  0  0  0  0  0  0
   -2.8610    1.6831    0.0000 C   0  0  0  0  0  0  0  0  0  0  0  0
   -3.1558   -0.1724    0.0000 C   0  0  0  0  0  0  0  0  0  0  0  0
   -2.3016   -1.4054    0.0000 C   0  0  0  0  0  0  0  0  0  0  0  0
   -2.9422   -2.7617    0.0000 O   0  0  0  0  0  0  0  0  0  0  0  0
   -0.8067   -1.2821    0.0000 C   0  0  0  0  0  0  0  0  0  0  0  0
    0.6532   -1.6267    0.0000 C   0  0  0  0  0  0  0  0  0  0  0  0
    1.3739   -2.9423    0.0000 C   0  0  0  0  0  0  0  0  0  0  0  0
    2.8735   -2.9759    0.0000 C   0  0  0  0  0  0  0  0  0  0  0  0
    3.6525   -1.6940    0.0000 C   0  0  0  0  0  0  0  0  0  0  0  0
    2.9318   -0.3785    0.0000 C   0  0  0  0  0  0  0  0  0  0  0  0
    3.7107    0.9034    0.0000 C   0  0  0  0  0  0  0  0  0  0  0  0
    1.8398    0.6500    0.0000 C   0  0  0  0  0  0  0  0  0  0  0  0
    2.1396    1.8274    0.0000 O   0  0  0  0  0  0  0  0  0  0  0  0
    0.5243   -0.0707    0.0000 O   0  0  0  0  0  0  0  0  0  0  0  0
    1.4321   -0.3448    0.0000 C   0  0  0  0  0  0  0  0  0  0  0  0
    0.4537    0.7921    0.0000 C   0  0  0  0  0  0  0  0  0  0  0  0
    0.7984    2.2520    0.0000 C   0  0  0  0  0  0  0  0  0  0  0  0
   -0.2936    3.2804    0.0000 O   0  0  0  0  0  0  0  0  0  0  0  0
    1.9107    2.7407    0.0000 O   0  0  0  0  0  0  0  0  0  0  0  0
  1  2  2  0
  2  3  1  0
  3  4  1  0
  4  5  1  6
  6  5  1  6
  6  7  1  0
  7  8  1  0
  8  9  1  1
  8 10  1  0
 10 11  1  1
 11 12  1  0
 12 13  1  0
 13 14  1  0
 14 15  1  0
 15 16  1  1
 15 17  1  0
 17 18  2  0
 17 19  1  0
 15 20  1  0
 20 21  1  0
 21 22  1  1
 22 23  2  0
 22 24  1  0
  6  2  1  0
 19 11  1  0
 10  3  1  0
 20 11  1  6
 10  4  1  0
 21  4  1  0
M  END
