
     RDKit          2D

 24 25  0  0  0  0  0  0  0  0999 V2000
   -7.1617    1.0212    0.0000 C   0  0  0  0  0  0  0  0  0  0  0  0
   -6.0157    0.0534    0.0000 C   0  0  0  0  0  0  0  0  0  0  0  0
   -6.2809   -1.4230    0.0000 C   0  0  0  0  0  0  0  0  0  0  0  0
   -5.1349   -2.3908    0.0000 C   0  0  0  0  0  0  0  0  0  0  0  0
   -5.4000   -3.8672    0.0000 O   0  0  0  0  0  0  0  0  0  0  0  0
   -3.7237   -1.8823    0.0000 O   0  0  0  0  0  0  0  0  0  0  0  0
   -3.4585   -0.4059    0.0000 C   0  0  0  0  0  0  0  0  0  0  0  0
   -2.0474    0.1027    0.0000 C   0  0  0  0  0  0  0  0  0  0  0  0
   -1.7822    1.5790    0.0000 C   0  0  0  0  0  0  0  0  0  0  0  0
   -0.3710    2.0876    0.0000 O   0  0  0  0  0  0  0  0  0  0  0  0
    0.7750    1.1198    0.0000 C   0  0  0  0  0  0  0  0  0  0  0  0
    2.1861    1.6283    0.0000 C   0  0  0  0  0  0  0  0  0  0  0  0
    3.3321    0.6605    0.0000 C   0  0  0  0  0  0  0  0  0  0  0  0
    4.7433    1.1691    0.0000 C   0  0  0  0  0  0  0  0  0  0  0  0
    5.8893    0.2012    0.0000 N   0  0  0  0  0  0  0  0  0  0  0  0
    5.6241   -1.2751    0.0000 C   0  0  0  0  0  0  0  0  0  0  0  0
    6.7701   -2.2430    0.0000 C   0  0  0  0  0  0  0  0  0  0  0  0
    8.1813   -1.7344    0.0000 C   0  0  0  0  0  0  0  0  0  0  0  0
    8.4464   -0.2580    0.0000 C   0  0  0  0  0  0  0  0  0  0  0  0
    7.3004    0.7098    0.0000 C   0  0  0  0  0  0  0  0  0  0  0  0
   -2.9282    2.5469    0.0000 C   0  0  0  0  0  0  0  0  0  0  0  0
   -4.3394    2.0383    0.0000 C   0  0  0  0  0  0  0  0  0  0  0  0
   -4.6045    0.5619    0.0000 C   0  0  0  0  0  0  0  0  0  0  0  0
    0.0000    3.5469    0.0000 Br  0  0  0  0  0  0  0  0  0  0  0  0
  1  2  1  0
  2  3  2  0
  3  4  1  0
  4  5  2  0
  4  6  1  0
  6  7  1  0
  7  8  2  0
  8  9  1  0
  9 10  1  0
 10 11  1  0
 11 12  1  0
 12 13  1  0
 13 14  1  0
 14 15  1  0
 15 16  2  0
 16 17  1  0
 17 18  2  0
 18 19  1  0
 19 20  2  0
  9 21  2  0
 21 22  1  0
 22 23  2  0
 23  2  1  0
 23  7  1  0
 20 15  1  0
M  CHG  2  15   1  24  -1
M  END
