
     RDKit          2D

 24 26  0  0  0  0  0  0  0  0999 V2000
   -5.9659    3.2025    0.0000 C   0  0  0  0  0  0  0  0  0  0  0  0
   -4.4833    2.9747    0.0000 O   0  0  0  0  0  0  0  0  0  0  0  0
   -3.9392    1.5769    0.0000 C   0  0  0  0  0  0  0  0  0  0  0  0
   -4.8777    0.4068    0.0000 C   0  0  0  0  0  0  0  0  0  0  0  0
   -4.3336   -0.9911    0.0000 C   0  0  0  0  0  0  0  0  0  0  0  0
   -5.2721   -2.1612    0.0000 C   0  0  0  0  0  0  0  0  0  0  0  0
   -2.8510   -1.2188    0.0000 C   0  0  0  0  0  0  0  0  0  0  0  0
   -2.3069   -2.6166    0.0000 C   0  0  0  0  0  0  0  0  0  0  0  0
   -0.8243   -2.8444    0.0000 C   0  0  0  0  0  0  0  0  0  0  0  0
    0.1142   -1.6743    0.0000 C   0  0  0  0  0  0  0  0  0  0  0  0
    1.5968   -1.9020    0.0000 C   0  0  0  0  0  0  0  0  0  0  0  0
    2.1409   -3.2998    0.0000 C   0  0  0  0  0  0  0  0  0  0  0  0
    2.5354   -0.7319    0.0000 C   0  0  0  0  0  0  0  0  0  0  0  0
    1.9913    0.6660    0.0000 O   0  0  0  0  0  0  0  0  0  0  0  0
    4.0180   -0.9596    0.0000 N   0  0  0  0  0  0  0  0  0  0  0  0
    4.9565    0.2105    0.0000 C   0  0  0  0  0  0  0  0  0  0  0  0
    4.5615    1.6576    0.0000 C   0  0  0  0  0  0  0  0  0  0  0  0
    5.8157    2.4804    0.0000 C   0  0  0  0  0  0  0  0  0  0  0  0
    6.9858    1.5419    0.0000 C   0  0  0  0  0  0  0  0  0  0  0  0
    6.4548    0.1390    0.0000 C   0  0  0  0  0  0  0  0  0  0  0  0
   -0.4299   -0.2764    0.0000 C   0  0  0  0  0  0  0  0  0  0  0  0
   -1.9125   -0.0487    0.0000 C   0  0  0  0  0  0  0  0  0  0  0  0
   -2.4566    1.3492    0.0000 C   0  0  0  0  0  0  0  0  0  0  0  0
   -1.5180    2.5193    0.0000 C   0  0  0  0  0  0  0  0  0  0  0  0
  1  2  1  0
  2  3  1  0
  3  4  2  0
  4  5  1  0
  5  6  1  0
  5  7  2  0
  7  8  1  0
  8  9  1  0
 10  9  1  6
 10 11  1  0
 11 12  1  1
 11 13  1  0
 13 14  2  0
 13 15  1  0
 15 16  1  0
 16 17  1  0
 17 18  1  0
 18 19  1  0
 19 20  1  0
 10 21  1  0
 21 22  1  0
 22 23  2  0
 23 24  1  0
 23  3  1  0
 22  7  1  0
 20 16  1  0
M  END
