
     RDKit          2D

 24 26  0  0  0  0  0  0  0  0999 V2000
    4.3110   -4.2183    0.0000 C   0  0  0  0  0  0  0  0  0  0  0  0
    2.8965   -3.7193    0.0000 O   0  0  0  0  0  0  0  0  0  0  0  0
    2.6213   -2.2448    0.0000 C   0  0  0  0  0  0  0  0  0  0  0  0
    3.7607   -1.2692    0.0000 C   0  0  0  0  0  0  0  0  0  0  0  0
    3.4856    0.2054    0.0000 C   0  0  0  0  0  0  0  0  0  0  0  0
    4.6250    1.1809    0.0000 C   0  0  0  0  0  0  0  0  0  0  0  0
    4.3498    2.6555    0.0000 C   0  0  0  0  0  0  0  0  0  0  0  0
    5.4893    3.6310    0.0000 C   0  0  0  0  0  0  0  0  0  0  0  0
    2.9353    3.1545    0.0000 C   0  0  0  0  0  0  0  0  0  0  0  0
    1.7959    2.1789    0.0000 C   0  0  0  0  0  0  0  0  0  0  0  0
    2.0710    0.7043    0.0000 C   0  0  0  0  0  0  0  0  0  0  0  0
    0.9316   -0.2712    0.0000 C   0  0  0  0  0  0  0  0  0  0  0  0
   -0.4830    0.2278    0.0000 C   0  0  0  0  0  0  0  0  0  0  0  0
   -1.6224   -0.7478    0.0000 C   0  0  0  0  0  0  0  0  0  0  0  0
   -3.0370   -0.2488    0.0000 C   0  0  0  0  0  0  0  0  0  0  0  0
   -3.3121    1.2257    0.0000 C   0  0  0  0  0  0  0  0  0  0  0  0
   -4.7267    1.7247    0.0000 C   0  0  0  0  0  0  0  0  0  0  0  0
   -5.0019    3.1993    0.0000 O   0  0  0  0  0  0  0  0  0  0  0  0
   -5.8661    0.7492    0.0000 C   0  0  0  0  0  0  0  0  0  0  0  0
   -5.5910   -0.7254    0.0000 C   0  0  0  0  0  0  0  0  0  0  0  0
   -6.7304   -1.7009    0.0000 O   0  0  0  0  0  0  0  0  0  0  0  0
   -4.1764   -1.2244    0.0000 O   0  0  0  0  0  0  0  0  0  0  0  0
    1.2067   -1.7458    0.0000 C   0  0  0  0  0  0  0  0  0  0  0  0
    0.0673   -2.7213    0.0000 C   0  0  0  0  0  0  0  0  0  0  0  0
  1  2  1  0
  3  2  1  1
  3  4  1  0
  4  5  2  0
  5  6  1  0
  6  7  1  0
  7  8  1  1
  7  9  1  0
  9 10  1  0
 10 11  1  0
 11 12  1  0
 12 13  1  6
 13 14  1  0
 15 14  1  1
 15 16  1  0
 16 17  1  0
 17 18  1  6
 17 19  1  0
 19 20  1  0
 20 21  2  0
 20 22  1  0
 12 23  1  0
 23 24  1  6
 23  3  1  0
 11  5  1  0
 22 15  1  0
M  END
