
     RDKit          2D

 24 26  0  0  0  0  0  0  0  0999 V2000
   -4.6931   -1.5634    0.0000 C   0  0  0  0  0  0  0  0  0  0  0  0
   -3.2100   -1.3388    0.0000 O   0  0  0  0  0  0  0  0  0  0  0  0
   -2.6629    0.0579    0.0000 C   0  0  0  0  0  0  0  0  0  0  0  0
   -3.5989    1.2300    0.0000 C   0  0  0  0  0  0  0  0  0  0  0  0
   -3.0519    2.6267    0.0000 C   0  0  0  0  0  0  0  0  0  0  0  0
   -1.5688    2.8513    0.0000 C   0  0  0  0  0  0  0  0  0  0  0  0
   -0.6328    1.6791    0.0000 C   0  0  0  0  0  0  0  0  0  0  0  0
   -1.1798    0.2825    0.0000 C   0  0  0  0  0  0  0  0  0  0  0  0
   -0.0205   -0.6694    0.0000 C   0  0  0  0  0  0  0  0  0  0  0  0
    0.3973   -1.3483    0.0000 O   0  0  0  0  0  0  0  0  0  0  0  0
   -1.0884   -1.7229    0.0000 C   0  0  0  0  0  0  0  0  0  0  0  0
   -0.7100   -3.1743    0.0000 O   0  0  0  0  0  0  0  0  0  0  0  0
   -2.3030   -1.6935    0.0000 O   0  0  0  0  0  0  0  0  0  0  0  0
    1.2430    0.1390    0.0000 C   0  0  0  0  0  0  0  0  0  0  0  0
    2.6892   -0.2591    0.0000 C   0  0  0  0  0  0  0  0  0  0  0  0
    3.9120   -1.1278    0.0000 C   0  0  0  0  0  0  0  0  0  0  0  0
    2.0460   -1.6142    0.0000 C   0  0  0  0  0  0  0  0  0  0  0  0
    1.2652   -1.7747    0.0000 O   0  0  0  0  0  0  0  0  0  0  0  0
    2.8980   -2.8488    0.0000 O   0  0  0  0  0  0  0  0  0  0  0  0
    3.7570    0.7943    0.0000 C   0  0  0  0  0  0  0  0  0  0  0  0
    3.3787    2.2458    0.0000 C   0  0  0  0  0  0  0  0  0  0  0  0
    1.9325    2.6439    0.0000 C   0  0  0  0  0  0  0  0  0  0  0  0
    0.8646    1.5904    0.0000 C   0  0  0  0  0  0  0  0  0  0  0  0
    0.3366    2.9944    0.0000 C   0  0  0  0  0  0  0  0  0  0  0  0
  1  2  1  0
  2  3  1  0
  3  4  2  0
  4  5  1  0
  5  6  2  0
  6  7  1  0
  7  8  2  0
  8  9  1  0
  9 10  1  6
  9 11  1  0
 11 12  2  0
 11 13  1  0
 14  9  1  6
 14 15  1  0
 15 16  1  6
 15 17  1  0
 17 18  2  0
 17 19  1  0
 15 20  1  0
 20 21  1  0
 21 22  1  0
 22 23  1  0
 23 24  1  1
  8  3  1  0
 23 14  1  0
 23  7  1  0
M  END
