
     RDKit          2D

 24 27  0  0  0  0  0  0  0  0999 V2000
   -6.9337   -1.0295    0.0000 C   0  0  0  0  0  0  0  0  0  0  0  0
   -5.7710   -0.0818    0.0000 C   0  0  0  0  0  0  0  0  0  0  0  0
   -6.0104    1.3990    0.0000 C   0  0  0  0  0  0  0  0  0  0  0  0
   -4.8476    2.3467    0.0000 C   0  0  0  0  0  0  0  0  0  0  0  0
   -3.4456    1.8136    0.0000 C   0  0  0  0  0  0  0  0  0  0  0  0
   -3.2062    0.3328    0.0000 C   0  0  0  0  0  0  0  0  0  0  0  0
   -1.8042   -0.2003    0.0000 N   0  0  0  0  0  0  0  0  0  0  0  0
   -0.5487    0.6206    0.0000 C   0  0  0  0  0  0  0  0  0  0  0  0
   -0.4750    2.1188    0.0000 O   0  0  0  0  0  0  0  0  0  0  0  0
    0.6200   -0.3197    0.0000 C   0  0  0  0  0  0  0  0  0  0  0  0
    2.1181   -0.3934    0.0000 C   0  0  0  0  0  0  0  0  0  0  0  0
    3.0584    0.7753    0.0000 C   0  0  0  0  0  0  0  0  0  0  0  0
    2.5164    2.1739    0.0000 O   0  0  0  0  0  0  0  0  0  0  0  0
    4.5407    0.5453    0.0000 C   0  0  0  0  0  0  0  0  0  0  0  0
    5.5980    1.6093    0.0000 C   0  0  0  0  0  0  0  0  0  0  0  0
    6.9367    0.9326    0.0000 C   0  0  0  0  0  0  0  0  0  0  0  0
    6.7067   -0.5497    0.0000 C   0  0  0  0  0  0  0  0  0  0  0  0
    5.2259   -0.7890    0.0000 O   0  0  0  0  0  0  0  0  0  0  0  0
    2.5110   -1.8411    0.0000 N   0  0  0  0  0  0  0  0  0  0  0  0
    1.2556   -2.6620    0.0000 O   0  0  0  0  0  0  0  0  0  0  0  0
    0.0868   -1.7217    0.0000 C   0  0  0  0  0  0  0  0  0  0  0  0
   -1.4113   -1.6480    0.0000 C   0  0  0  0  0  0  0  0  0  0  0  0
   -2.3516   -2.8167    0.0000 O   0  0  0  0  0  0  0  0  0  0  0  0
   -4.3689   -0.6149    0.0000 C   0  0  0  0  0  0  0  0  0  0  0  0
  1  2  1  0
  2  3  2  0
  3  4  1  0
  4  5  2  0
  5  6  1  0
  6  7  1  0
  7  8  1  0
  8  9  2  0
 10  8  1  6
 10 11  1  0
 11 12  1  0
 12 13  2  0
 12 14  1  0
 14 15  2  0
 15 16  1  0
 16 17  2  0
 17 18  1  0
 11 19  2  0
 19 20  1  0
 21 20  1  1
 21 22  1  0
 22 23  2  0
  6 24  2  0
 24  2  1  0
 22  7  1  0
 21 10  1  0
 18 14  1  0
M  END
