
     RDKit          2D

 24 23  0  0  0  0  0  0  0  0999 V2000
  -10.7299   -0.3019    0.0000 C   0  0  0  0  0  0  0  0  0  0  0  0
   -9.6676    0.7570    0.0000 C   0  0  0  0  0  0  0  0  0  0  0  0
   -8.2193    0.3665    0.0000 C   0  0  0  0  0  0  0  0  0  0  0  0
   -7.1570    1.4255    0.0000 C   0  0  0  0  0  0  0  0  0  0  0  0
   -5.7087    1.0349    0.0000 C   0  0  0  0  0  0  0  0  0  0  0  0
   -4.6463    2.0939    0.0000 C   0  0  0  0  0  0  0  0  0  0  0  0
   -3.1981    1.7033    0.0000 C   0  0  0  0  0  0  0  0  0  0  0  0
   -2.8122    0.2538    0.0000 C   0  0  0  0  0  0  0  0  0  0  0  0
   -3.8745   -0.8052    0.0000 O   0  0  0  0  0  0  0  0  0  0  0  0
   -1.3639   -0.1367    0.0000 C   0  0  0  0  0  0  0  0  0  0  0  0
   -0.3015    0.9222    0.0000 O   0  0  0  0  0  0  0  0  0  0  0  0
   -0.9780   -1.5863    0.0000 C   0  0  0  0  0  0  0  0  0  0  0  0
    0.4703   -1.9768    0.0000 C   0  0  0  0  0  0  0  0  0  0  0  0
    0.8562   -3.4263    0.0000 C   0  0  0  0  0  0  0  0  0  0  0  0
    2.3044   -3.8169    0.0000 C   0  0  0  0  0  0  0  0  0  0  0  0
    3.3668   -2.7579    0.0000 C   0  0  0  0  0  0  0  0  0  0  0  0
    4.8151   -3.1485    0.0000 C   0  0  0  0  0  0  0  0  0  0  0  0
    5.8774   -2.0895    0.0000 C   0  0  0  0  0  0  0  0  0  0  0  0
    5.4915   -0.6400    0.0000 C   0  0  0  0  0  0  0  0  0  0  0  0
    6.5539    0.4190    0.0000 C   0  0  0  0  0  0  0  0  0  0  0  0
    6.1680    1.8685    0.0000 C   0  0  0  0  0  0  0  0  0  0  0  0
    7.2303    2.9274    0.0000 C   0  0  0  0  0  0  0  0  0  0  0  0
    8.6786    2.5369    0.0000 O   0  0  0  0  0  0  0  0  0  0  0  0
    6.8444    4.3770    0.0000 O   0  0  0  0  0  0  0  0  0  0  0  0
  1  2  1  0
  2  3  1  0
  3  4  1  0
  4  5  1  0
  5  6  1  0
  6  7  2  0
  7  8  1  0
  8  9  1  1
  8 10  1  0
 10 11  1  6
 10 12  1  0
 12 13  2  0
 13 14  1  0
 14 15  2  0
 15 16  1  0
 16 17  1  0
 17 18  2  0
 18 19  1  0
 19 20  1  0
 20 21  1  0
 21 22  1  0
 22 23  2  0
 22 24  1  0
M  END
