
     RDKit          2D

 24 23  0  0  0  0  0  0  0  0999 V2000
    5.2755    4.2785    0.0000 C   0  0  0  0  0  0  0  0  0  0  0  0
    5.8016    2.8738    0.0000 C   0  0  0  0  0  0  0  0  0  0  0  0
    7.2812    2.6271    0.0000 C   0  0  0  0  0  0  0  0  0  0  0  0
    7.8074    1.2224    0.0000 C   0  0  0  0  0  0  0  0  0  0  0  0
    6.8539    0.0644    0.0000 C   0  0  0  0  0  0  0  0  0  0  0  0
    7.3801   -1.3403    0.0000 C   0  0  0  0  0  0  0  0  0  0  0  0
    6.4266   -2.4983    0.0000 C   0  0  0  0  0  0  0  0  0  0  0  0
    4.9471   -2.2516    0.0000 C   0  0  0  0  0  0  0  0  0  0  0  0
    3.9936   -3.4096    0.0000 C   0  0  0  0  0  0  0  0  0  0  0  0
    2.5141   -3.1629    0.0000 C   0  0  0  0  0  0  0  0  0  0  0  0
    1.9879   -1.7582    0.0000 C   0  0  0  0  0  0  0  0  0  0  0  0
    0.5083   -1.5115    0.0000 C   0  0  0  0  0  0  0  0  0  0  0  0
   -0.0178   -0.1068    0.0000 C   0  0  0  0  0  0  0  0  0  0  0  0
    0.9356    1.0512    0.0000 O   0  0  0  0  0  0  0  0  0  0  0  0
   -1.4974    0.1399    0.0000 C   0  0  0  0  0  0  0  0  0  0  0  0
   -2.0235    1.5446    0.0000 C   0  0  0  0  0  0  0  0  0  0  0  0
   -3.5031    1.7913    0.0000 C   0  0  0  0  0  0  0  0  0  0  0  0
   -4.4565    0.6333    0.0000 C   0  0  0  0  0  0  0  0  0  0  0  0
   -5.9361    0.8800    0.0000 C   0  0  0  0  0  0  0  0  0  0  0  0
   -6.8895   -0.2780    0.0000 C   0  0  0  0  0  0  0  0  0  0  0  0
   -8.3691   -0.0313    0.0000 C   0  0  0  0  0  0  0  0  0  0  0  0
   -8.8952    1.3734    0.0000 O   0  0  0  0  0  0  0  0  0  0  0  0
   -9.3225   -1.1893    0.0000 O   0  0  0  0  0  0  0  0  0  0  0  0
  -10.8021   -0.9426    0.0000 C   0  0  0  0  0  0  0  0  0  0  0  0
  1  2  1  0
  2  3  1  0
  3  4  2  0
  4  5  1  0
  5  6  1  0
  6  7  2  0
  7  8  1  0
  8  9  1  0
  9 10  2  0
 10 11  1  0
 11 12  2  0
 12 13  1  0
 13 14  1  1
 13 15  1  0
 15 16  1  0
 16 17  2  0
 17 18  1  0
 18 19  1  0
 19 20  1  0
 20 21  1  0
 21 22  2  0
 21 23  1  0
 23 24  1  0
M  END
