
     RDKit          2D

 24 26  0  0  0  0  0  0  0  0999 V2000
    2.6234   -5.0058    0.0000 C   0  0  0  0  0  0  0  0  0  0  0  0
    3.5372   -3.8163    0.0000 C   0  0  0  0  0  0  0  0  0  0  0  0
    2.9640   -2.4302    0.0000 C   0  0  0  0  0  0  0  0  0  0  0  0
    1.4769   -2.2335    0.0000 C   0  0  0  0  0  0  0  0  0  0  0  0
    0.5631   -3.4230    0.0000 O   0  0  0  0  0  0  0  0  0  0  0  0
    3.8778   -1.2407    0.0000 N   0  0  0  0  0  0  0  0  0  0  0  0
    3.3046    0.1455    0.0000 C   0  0  0  0  0  0  0  0  0  0  0  0
    1.8175    0.3421    0.0000 N   0  0  0  0  0  0  0  0  0  0  0  0
    1.2443    1.7283    0.0000 N   0  0  0  0  0  0  0  0  0  0  0  0
   -0.1694    2.2298    0.0000 C   0  0  0  0  0  0  0  0  0  0  0  0
   -1.4060    1.3809    0.0000 C   0  0  0  0  0  0  0  0  0  0  0  0
   -2.7595    2.0275    0.0000 C   0  0  0  0  0  0  0  0  0  0  0  0
   -3.9962    1.1786    0.0000 C   0  0  0  0  0  0  0  0  0  0  0  0
   -3.8794   -0.3169    0.0000 C   0  0  0  0  0  0  0  0  0  0  0  0
   -5.1161   -1.1657    0.0000 C   0  0  0  0  0  0  0  0  0  0  0  0
   -4.9993   -2.6612    0.0000 O   0  0  0  0  0  0  0  0  0  0  0  0
   -6.4696   -0.5192    0.0000 O   0  0  0  0  0  0  0  0  0  0  0  0
   -2.5259   -0.9634    0.0000 C   0  0  0  0  0  0  0  0  0  0  0  0
   -1.2892   -0.1145    0.0000 C   0  0  0  0  0  0  0  0  0  0  0  0
   -0.1292    3.7293    0.0000 C   0  0  0  0  0  0  0  0  0  0  0  0
    1.3093    4.1545    0.0000 N   0  0  0  0  0  0  0  0  0  0  0  0
    2.1581    2.9178    0.0000 C   0  0  0  0  0  0  0  0  0  0  0  0
    3.6452    2.7211    0.0000 C   0  0  0  0  0  0  0  0  0  0  0  0
    4.2184    1.3350    0.0000 C   0  0  0  0  0  0  0  0  0  0  0  0
  1  2  1  0
  3  2  1  6
  3  4  1  0
  4  5  1  0
  3  6  1  0
  6  7  1  0
  7  8  2  0
  8  9  1  0
  9 10  1  0
 10 11  1  0
 11 12  2  0
 12 13  1  0
 13 14  2  0
 14 15  1  0
 15 16  2  0
 15 17  1  0
 14 18  1  0
 18 19  2  0
 10 20  2  0
 20 21  1  0
 21 22  2  0
 22 23  1  0
 23 24  2  0
 24  7  1  0
 22  9  1  0
 19 11  1  0
M  END
