
     RDKit          2D

 24 28  0  0  0  0  0  0  0  0999 V2000
    4.1047   -2.6225    0.0000 O   0  0  0  0  0  0  0  0  0  0  0  0
    3.2100   -1.4185    0.0000 C   0  0  0  0  0  0  0  0  0  0  0  0
    1.7200   -1.5914    0.0000 C   0  0  0  0  0  0  0  0  0  0  0  0
    0.8253   -0.3875    0.0000 C   0  0  0  0  0  0  0  0  0  0  0  0
    1.4206    0.9893    0.0000 C   0  0  0  0  0  0  0  0  0  0  0  0
    2.9106    1.1622    0.0000 C   0  0  0  0  0  0  0  0  0  0  0  0
    3.8053   -0.0417    0.0000 C   0  0  0  0  0  0  0  0  0  0  0  0
    5.2953    0.1312    0.0000 Br  0  0  0  0  0  0  0  0  0  0  0  0
    2.0159    2.3662    0.0000 C   0  0  0  0  0  0  0  0  0  0  0  0
    1.1211    3.5701    0.0000 C   0  0  0  0  0  0  0  0  0  0  0  0
   -0.3689    3.3972    0.0000 N   0  0  0  0  0  0  0  0  0  0  0  0
   -0.9642    2.0204    0.0000 C   0  0  0  0  0  0  0  0  0  0  0  0
   -0.0694    0.8165    0.0000 C   0  0  0  0  0  0  0  0  0  0  0  0
   -0.6647   -0.5604    0.0000 C   0  0  0  0  0  0  0  0  0  0  0  0
    0.2300   -1.7643    0.0000 N   0  0  0  0  0  0  0  0  0  0  0  0
   -0.3653   -3.1411    0.0000 C   0  0  0  0  0  0  0  0  0  0  0  0
   -1.8553   -3.3140    0.0000 C   0  0  0  0  0  0  0  0  0  0  0  0
   -2.7500   -2.1101    0.0000 C   0  0  0  0  0  0  0  0  0  0  0  0
   -4.2205   -1.8141    0.0000 C   0  0  0  0  0  0  0  0  0  0  0  0
   -4.3934   -0.3240    0.0000 N   0  0  0  0  0  0  0  0  0  0  0  0
   -3.0494    0.4707    0.0000 C   0  0  0  0  0  0  0  0  0  0  0  0
   -2.1547   -0.7332    0.0000 C   0  0  0  0  0  0  0  0  0  0  0  0
   -2.4542    1.8475    0.0000 C   0  0  0  0  0  0  0  0  0  0  0  0
   -3.3489    3.0515    0.0000 O   0  0  0  0  0  0  0  0  0  0  0  0
  1  2  2  0
  2  3  1  0
  3  4  1  0
  5  4  1  1
  5  6  1  0
  6  7  2  0
  7  8  1  0
  5  9  1  0
  9 10  1  0
 10 11  1  0
 11 12  1  0
 12 13  2  0
 13 14  1  0
 14 15  2  0
 15 16  1  0
 16 17  1  0
 17 18  1  0
 18 19  2  0
 19 20  1  0
 20 21  1  0
 21 22  2  0
 21 23  1  0
 23 24  2  0
  7  2  1  0
 23 12  1  0
 13  5  1  0
 22 14  1  0
 22 18  1  0
M  END
