
     RDKit          2D

 25 28  0  0  0  0  0  0  0  0999 V2000
   -6.5482    0.0253    0.0000 C   0  0  0  0  0  0  0  0  0  0  0  0
   -5.2328    0.7463    0.0000 O   0  0  0  0  0  0  0  0  0  0  0  0
   -3.9508   -0.0323    0.0000 C   0  0  0  0  0  0  0  0  0  0  0  0
   -3.9841   -1.5320    0.0000 O   0  0  0  0  0  0  0  0  0  0  0  0
   -2.6354    0.6886    0.0000 N   0  0  0  0  0  0  0  0  0  0  0  0
   -2.6021    2.1883    0.0000 C   0  0  0  0  0  0  0  0  0  0  0  0
   -1.2868    2.9093    0.0000 C   0  0  0  0  0  0  0  0  0  0  0  0
   -0.0047    2.1306    0.0000 C   0  0  0  0  0  0  0  0  0  0  0  0
    1.3107    2.8516    0.0000 C   0  0  0  0  0  0  0  0  0  0  0  0
    1.3440    4.3512    0.0000 Cl  0  0  0  0  0  0  0  0  0  0  0  0
    2.5928    2.0730    0.0000 C   0  0  0  0  0  0  0  0  0  0  0  0
    3.9081    2.7940    0.0000 O   0  0  0  0  0  0  0  0  0  0  0  0
    2.5595    0.5733    0.0000 C   0  0  0  0  0  0  0  0  0  0  0  0
    3.8415   -0.2053    0.0000 O   0  0  0  0  0  0  0  0  0  0  0  0
    5.1569    0.5157    0.0000 C   0  0  0  0  0  0  0  0  0  0  0  0
    1.2441   -0.1476    0.0000 C   0  0  0  0  0  0  0  0  0  0  0  0
   -0.0380    0.6310    0.0000 C   0  0  0  0  0  0  0  0  0  0  0  0
   -1.3533   -0.0900    0.0000 C   0  0  0  0  0  0  0  0  0  0  0  0
   -1.3866   -1.5896    0.0000 C   0  0  0  0  0  0  0  0  0  0  0  0
   -0.1045   -2.3683    0.0000 C   0  0  0  0  0  0  0  0  0  0  0  0
   -0.1378   -3.8679    0.0000 C   0  0  0  0  0  0  0  0  0  0  0  0
    1.1443   -4.6465    0.0000 C   0  0  0  0  0  0  0  0  0  0  0  0
    2.4596   -3.9255    0.0000 C   0  0  0  0  0  0  0  0  0  0  0  0
    2.4929   -2.4259    0.0000 C   0  0  0  0  0  0  0  0  0  0  0  0
    1.2108   -1.6473    0.0000 C   0  0  0  0  0  0  0  0  0  0  0  0
  1  2  1  0
  2  3  1  0
  3  4  2  0
  3  5  1  0
  5  6  1  0
  6  7  1  0
  7  8  1  0
  8  9  2  0
  9 10  1  0
  9 11  1  0
 11 12  1  0
 11 13  2  0
 13 14  1  0
 14 15  1  0
 13 16  1  0
 16 17  2  0
 17 18  1  0
 18 19  1  6
 19 20  1  0
 20 21  2  0
 21 22  1  0
 22 23  2  0
 23 24  1  0
 24 25  2  0
 18  5  1  0
 25 20  1  0
 17  8  1  0
 25 16  1  0
M  END
