
     RDKit          2D

 25 27  0  0  0  0  0  0  0  0999 V2000
    1.7624   -2.3963    0.0000 C   0  0  0  0  0  0  0  0  0  0  0  0
    0.4151   -1.7367    0.0000 C   0  0  0  0  0  0  0  0  0  0  0  0
   -0.8296   -2.5737    0.0000 C   0  0  0  0  0  0  0  0  0  0  0  0
   -2.1769   -1.9142    0.0000 C   0  0  0  0  0  0  0  0  0  0  0  0
   -2.2793   -0.4177    0.0000 C   0  0  0  0  0  0  0  0  0  0  0  0
   -3.5241   -1.2546    0.0000 C   0  0  0  0  0  0  0  0  0  0  0  0
   -3.6265    0.2419    0.0000 C   0  0  0  0  0  0  0  0  0  0  0  0
   -4.8713   -0.5951    0.0000 C   0  0  0  0  0  0  0  0  0  0  0  0
   -4.7689   -2.0916    0.0000 O   0  0  0  0  0  0  0  0  0  0  0  0
   -6.2185    0.0645    0.0000 O   0  0  0  0  0  0  0  0  0  0  0  0
   -3.7289    1.7384    0.0000 C   0  0  0  0  0  0  0  0  0  0  0  0
   -2.4841    2.5753    0.0000 C   0  0  0  0  0  0  0  0  0  0  0  0
   -2.5866    4.0718    0.0000 O   0  0  0  0  0  0  0  0  0  0  0  0
   -1.1369    1.9158    0.0000 C   0  0  0  0  0  0  0  0  0  0  0  0
   -1.0345    0.4193    0.0000 C   0  0  0  0  0  0  0  0  0  0  0  0
    0.3127   -0.2402    0.0000 C   0  0  0  0  0  0  0  0  0  0  0  0
    0.7283    1.2010    0.0000 C   0  0  0  0  0  0  0  0  0  0  0  0
    1.8043   -0.3992    0.0000 C   0  0  0  0  0  0  0  0  0  0  0  0
    2.6877    0.8130    0.0000 C   0  0  0  0  0  0  0  0  0  0  0  0
    4.1793    0.6540    0.0000 C   0  0  0  0  0  0  0  0  0  0  0  0
    5.1846    1.7672    0.0000 C   0  0  0  0  0  0  0  0  0  0  0  0
    6.5540    1.1551    0.0000 C   0  0  0  0  0  0  0  0  0  0  0  0
    6.3951   -0.3364    0.0000 O   0  0  0  0  0  0  0  0  0  0  0  0
    4.9274   -0.6461    0.0000 C   0  0  0  0  0  0  0  0  0  0  0  0
    4.3152   -2.0156    0.0000 O   0  0  0  0  0  0  0  0  0  0  0  0
  2  1  1  6
  2  3  1  0
  3  4  1  0
  4  5  1  0
  5  6  1  6
  5  7  1  0
  7  8  1  0
  8  9  2  0
  8 10  1  0
  7 11  2  0
 11 12  1  0
 12 13  1  1
 12 14  1  0
 15 14  1  6
 15 16  1  0
 16 17  1  6
 16 18  1  0
 18 19  1  0
 19 20  1  0
 20 21  2  0
 21 22  1  0
 22 23  1  0
 23 24  1  0
 24 25  2  0
 16  2  1  0
 24 20  1  0
 15  5  1  0
M  END
