
     RDKit          2D

 25 27  0  0  0  0  0  0  0  0999 V2000
    7.2007   -2.6807    0.0000 C   0  0  0  0  0  0  0  0  0  0  0  0
    6.7240   -1.2584    0.0000 O   0  0  0  0  0  0  0  0  0  0  0  0
    5.2540   -0.9601    0.0000 C   0  0  0  0  0  0  0  0  0  0  0  0
    4.2606   -2.0841    0.0000 C   0  0  0  0  0  0  0  0  0  0  0  0
    2.7906   -1.7858    0.0000 C   0  0  0  0  0  0  0  0  0  0  0  0
    2.3139   -0.3635    0.0000 C   0  0  0  0  0  0  0  0  0  0  0  0
    0.8439   -0.0652    0.0000 C   0  0  0  0  0  0  0  0  0  0  0  0
   -0.1495   -1.1891    0.0000 O   0  0  0  0  0  0  0  0  0  0  0  0
    0.3672    1.3570    0.0000 N   0  0  0  0  0  0  0  0  0  0  0  0
   -1.1028    1.6553    0.0000 C   0  0  0  0  0  0  0  0  0  0  0  0
   -1.5795    3.0776    0.0000 C   0  0  0  0  0  0  0  0  0  0  0  0
   -3.0495    3.3759    0.0000 C   0  0  0  0  0  0  0  0  0  0  0  0
   -4.0429    2.2520    0.0000 C   0  0  0  0  0  0  0  0  0  0  0  0
   -3.5662    0.8297    0.0000 C   0  0  0  0  0  0  0  0  0  0  0  0
   -4.5596   -0.2942    0.0000 C   0  0  0  0  0  0  0  0  0  0  0  0
   -6.0296    0.0041    0.0000 O   0  0  0  0  0  0  0  0  0  0  0  0
   -7.0230   -1.1198    0.0000 C   0  0  0  0  0  0  0  0  0  0  0  0
   -6.5463   -2.5421    0.0000 C   0  0  0  0  0  0  0  0  0  0  0  0
   -5.0763   -2.8404    0.0000 C   0  0  0  0  0  0  0  0  0  0  0  0
   -4.0829   -1.7165    0.0000 O   0  0  0  0  0  0  0  0  0  0  0  0
   -2.0962    0.5314    0.0000 C   0  0  0  0  0  0  0  0  0  0  0  0
    3.3073    0.7604    0.0000 C   0  0  0  0  0  0  0  0  0  0  0  0
    4.7773    0.4621    0.0000 C   0  0  0  0  0  0  0  0  0  0  0  0
    5.7707    1.5861    0.0000 O   0  0  0  0  0  0  0  0  0  0  0  0
    5.2940    3.0083    0.0000 C   0  0  0  0  0  0  0  0  0  0  0  0
  1  2  1  0
  2  3  1  0
  3  4  2  0
  4  5  1  0
  5  6  2  0
  6  7  1  0
  7  8  2  0
  7  9  1  0
  9 10  1  0
 10 11  2  0
 11 12  1  0
 12 13  2  0
 13 14  1  0
 14 15  1  0
 15 16  1  0
 16 17  1  0
 17 18  1  0
 18 19  1  0
 19 20  1  0
 14 21  2  0
  6 22  1  0
 22 23  2  0
 23 24  1  0
 24 25  1  0
 23  3  1  0
 21 10  1  0
 20 15  1  0
M  END
