
     RDKit          2D

 25 26  0  0  0  0  0  0  0  0999 V2000
    8.9199   -2.9334    0.0000 C   0  0  0  0  0  0  0  0  0  0  0  0
    7.4296   -2.7626    0.0000 C   0  0  0  0  0  0  0  0  0  0  0  0
    6.8325   -1.3866    0.0000 C   0  0  0  0  0  0  0  0  0  0  0  0
    5.3423   -1.2157    0.0000 C   0  0  0  0  0  0  0  0  0  0  0  0
    4.7451    0.1603    0.0000 O   0  0  0  0  0  0  0  0  0  0  0  0
    3.2549    0.3312    0.0000 C   0  0  0  0  0  0  0  0  0  0  0  0
    2.3618   -0.8739    0.0000 C   0  0  0  0  0  0  0  0  0  0  0  0
    0.8715   -0.7031    0.0000 C   0  0  0  0  0  0  0  0  0  0  0  0
   -0.0215   -1.9082    0.0000 O   0  0  0  0  0  0  0  0  0  0  0  0
    0.2744    0.6729    0.0000 C   0  0  0  0  0  0  0  0  0  0  0  0
   -1.2158    0.8438    0.0000 C   0  0  0  0  0  0  0  0  0  0  0  0
   -2.1089   -0.3613    0.0000 N   0  0  0  0  0  0  0  0  0  0  0  0
   -3.5992   -0.1905    0.0000 C   0  0  0  0  0  0  0  0  0  0  0  0
   -4.4923   -1.3956    0.0000 C   0  0  0  0  0  0  0  0  0  0  0  0
   -5.9825   -1.2248    0.0000 C   0  0  0  0  0  0  0  0  0  0  0  0
   -6.8756   -2.4299    0.0000 C   0  0  0  0  0  0  0  0  0  0  0  0
   -6.2784   -3.8059    0.0000 O   0  0  0  0  0  0  0  0  0  0  0  0
   -8.3658   -2.2590    0.0000 O   0  0  0  0  0  0  0  0  0  0  0  0
   -1.8130    2.2198    0.0000 C   0  0  0  0  0  0  0  0  0  0  0  0
   -0.9199    3.4250    0.0000 C   0  0  0  0  0  0  0  0  0  0  0  0
   -0.4928    4.8629    0.0000 C   0  0  0  0  0  0  0  0  0  0  0  0
   -2.2618    4.0952    0.0000 C   0  0  0  0  0  0  0  0  0  0  0  0
    0.5704    3.2541    0.0000 O   0  0  0  0  0  0  0  0  0  0  0  0
    1.1675    1.8781    0.0000 C   0  0  0  0  0  0  0  0  0  0  0  0
    2.6577    1.7072    0.0000 C   0  0  0  0  0  0  0  0  0  0  0  0
  1  2  1  0
  2  3  1  0
  3  4  1  0
  4  5  1  0
  5  6  1  0
  6  7  2  0
  7  8  1  0
  8  9  1  0
  8 10  2  0
 10 11  1  0
 11 12  2  3
 12 13  1  0
 13 14  1  0
 14 15  1  0
 15 16  1  0
 16 17  2  0
 16 18  1  0
 11 19  1  0
 19 20  1  0
 20 21  1  0
 20 22  1  0
 20 23  1  0
 23 24  1  0
 24 25  2  0
 25  6  1  0
 24 10  1  0
M  END
