
     RDKit          2D

 25 28  0  0  0  0  0  0  0  0999 V2000
   -5.9067    0.3259    0.0000 C   0  0  0  0  0  0  0  0  0  0  0  0
   -5.2889   -1.0409    0.0000 S   0  0  0  0  0  0  0  0  0  0  0  0
   -3.7962   -1.1893    0.0000 C   0  0  0  0  0  0  0  0  0  0  0  0
   -2.9214    0.0292    0.0000 C   0  0  0  0  0  0  0  0  0  0  0  0
   -1.4288   -0.1191    0.0000 C   0  0  0  0  0  0  0  0  0  0  0  0
   -0.8109   -1.4859    0.0000 C   0  0  0  0  0  0  0  0  0  0  0  0
    0.6817   -1.6343    0.0000 C   0  0  0  0  0  0  0  0  0  0  0  0
    1.2996   -3.0011    0.0000 C   0  0  0  0  0  0  0  0  0  0  0  0
    2.7922   -3.1494    0.0000 C   0  0  0  0  0  0  0  0  0  0  0  0
    3.4101   -4.5163    0.0000 O   0  0  0  0  0  0  0  0  0  0  0  0
    3.6670   -1.9309    0.0000 O   0  0  0  0  0  0  0  0  0  0  0  0
    3.0492   -0.5641    0.0000 C   0  0  0  0  0  0  0  0  0  0  0  0
    3.9239    0.6544    0.0000 C   0  0  0  0  0  0  0  0  0  0  0  0
    3.3061    2.0212    0.0000 C   0  0  0  0  0  0  0  0  0  0  0  0
    1.8134    2.1696    0.0000 C   0  0  0  0  0  0  0  0  0  0  0  0
    1.1956    3.5364    0.0000 C   0  0  0  0  0  0  0  0  0  0  0  0
    2.0704    4.7549    0.0000 C   0  0  0  0  0  0  0  0  0  0  0  0
   -0.2971    3.6847    0.0000 C   0  0  0  0  0  0  0  0  0  0  0  0
   -1.1719    2.4662    0.0000 C   0  0  0  0  0  0  0  0  0  0  0  0
   -2.6645    2.6146    0.0000 O   0  0  0  0  0  0  0  0  0  0  0  0
   -0.5540    1.0994    0.0000 O   0  0  0  0  0  0  0  0  0  0  0  0
    0.9387    0.9511    0.0000 C   0  0  0  0  0  0  0  0  0  0  0  0
    1.5565   -0.4158    0.0000 C   0  0  0  0  0  0  0  0  0  0  0  0
   -1.6857   -2.7044    0.0000 C   0  0  0  0  0  0  0  0  0  0  0  0
   -3.1783   -2.5561    0.0000 C   0  0  0  0  0  0  0  0  0  0  0  0
  1  2  1  0
  2  3  1  0
  3  4  2  0
  4  5  1  0
  5  6  2  0
  6  7  1  0
  7  8  1  0
  8  9  1  0
  9 10  2  0
  9 11  1  0
 11 12  1  0
 12 13  2  0
 13 14  1  0
 14 15  2  0
 15 16  1  0
 16 17  1  0
 16 18  2  0
 18 19  1  0
 19 20  2  0
 19 21  1  0
 21 22  1  0
 22 23  2  0
  6 24  1  0
 24 25  2  0
 25  3  1  0
 23  7  1  0
 23 12  1  0
 22 15  1  0
M  END
