
     RDKit          2D

 25 25  0  0  0  0  0  0  0  0999 V2000
   -5.2918    4.4185    0.0000 C   0  0  0  0  0  0  0  0  0  0  0  0
   -4.2801    3.3110    0.0000 C   0  0  0  0  0  0  0  0  0  0  0  0
   -4.7334    1.8811    0.0000 C   0  0  0  0  0  0  0  0  0  0  0  0
   -3.7217    0.7736    0.0000 C   0  0  0  0  0  0  0  0  0  0  0  0
   -4.1750   -0.6563    0.0000 C   0  0  0  0  0  0  0  0  0  0  0  0
   -5.6399   -0.9786    0.0000 C   0  0  0  0  0  0  0  0  0  0  0  0
   -6.6516    0.1288    0.0000 C   0  0  0  0  0  0  0  0  0  0  0  0
   -3.1633   -1.7637    0.0000 C   0  0  0  0  0  0  0  0  0  0  0  0
   -1.6984   -1.4413    0.0000 C   0  0  0  0  0  0  0  0  0  0  0  0
   -0.6867   -2.5488    0.0000 C   0  0  0  0  0  0  0  0  0  0  0  0
    0.7783   -2.2264    0.0000 C   0  0  0  0  0  0  0  0  0  0  0  0
    0.8414   -3.7251    0.0000 C   0  0  0  0  0  0  0  0  0  0  0  0
   -0.4250   -4.5291    0.0000 C   0  0  0  0  0  0  0  0  0  0  0  0
    0.2064   -0.8397    0.0000 C   0  0  0  0  0  0  0  0  0  0  0  0
    1.1214    0.3489    0.0000 C   0  0  0  0  0  0  0  0  0  0  0  0
    0.5495    1.7356    0.0000 C   0  0  0  0  0  0  0  0  0  0  0  0
    1.4645    2.9242    0.0000 C   0  0  0  0  0  0  0  0  0  0  0  0
    2.6082    0.1508    0.0000 C   0  0  0  0  0  0  0  0  0  0  0  0
    3.5232    1.3394    0.0000 C   0  0  0  0  0  0  0  0  0  0  0  0
    5.0101    1.1413    0.0000 C   0  0  0  0  0  0  0  0  0  0  0  0
    5.5819   -0.2454    0.0000 O   0  0  0  0  0  0  0  0  0  0  0  0
    5.9250    2.3299    0.0000 O   0  0  0  0  0  0  0  0  0  0  0  0
    7.4119    2.1318    0.0000 C   0  0  0  0  0  0  0  0  0  0  0  0
    3.1801   -1.2359    0.0000 O   0  0  0  0  0  0  0  0  0  0  0  0
    2.2651   -2.4245    0.0000 O   0  0  0  0  0  0  0  0  0  0  0  0
  1  2  1  0
  2  3  1  0
  3  4  2  0
  4  5  1  0
  5  6  1  1
  6  7  1  0
  5  8  1  0
  8  9  1  0
  9 10  1  0
 11 10  1  1
 11 12  1  0
 12 13  1  0
 11 14  1  0
 14 15  1  0
 15 16  1  6
 16 17  1  0
 15 18  1  0
 18 19  1  6
 19 20  1  0
 20 21  2  0
 20 22  1  0
 22 23  1  0
 18 24  1  0
 24 25  1  0
 25 11  1  0
M  END
