
     RDKit          2D

 25 27  0  0  0  0  0  0  0  0999 V2000
   -3.6258   -2.2021    0.0000 C   0  0  0  0  0  0  0  0  0  0  0  0
   -3.7778   -0.7098    0.0000 C   0  0  0  0  0  0  0  0  0  0  0  0
   -2.2778   -0.7147    0.0000 C   0  0  0  0  0  0  0  0  0  0  0  0
   -5.2460   -1.0170    0.0000 C   0  0  0  0  0  0  0  0  0  0  0  0
   -6.6143   -0.4025    0.0000 C   0  0  0  0  0  0  0  0  0  0  0  0
   -6.4527    1.0888    0.0000 C   0  0  0  0  0  0  0  0  0  0  0  0
   -4.9845    1.3960    0.0000 C   0  0  0  0  0  0  0  0  0  0  0  0
   -4.2387    0.0945    0.0000 C   0  0  0  0  0  0  0  0  0  0  0  0
   -3.6162    0.7814    0.0000 C   0  0  0  0  0  0  0  0  0  0  0  0
   -2.3147    1.5273    0.0000 C   0  0  0  0  0  0  0  0  0  0  0  0
   -1.0181    0.7731    0.0000 O   0  0  0  0  0  0  0  0  0  0  0  0
    0.2833    1.5189    0.0000 C   0  0  0  0  0  0  0  0  0  0  0  0
    0.2882    3.0189    0.0000 O   0  0  0  0  0  0  0  0  0  0  0  0
    1.5800    0.7647    0.0000 C   0  0  0  0  0  0  0  0  0  0  0  0
    1.5751   -0.7353    0.0000 C   0  0  0  0  0  0  0  0  0  0  0  0
    2.8717   -1.4895    0.0000 C   0  0  0  0  0  0  0  0  0  0  0  0
    2.8669   -2.9894    0.0000 N   0  0  0  0  0  0  0  0  0  0  0  0
    4.1635   -3.7436    0.0000 O   0  0  0  0  0  0  0  0  0  0  0  0
    1.5655   -3.7353    0.0000 O   0  0  0  0  0  0  0  0  0  0  0  0
    4.1732   -0.7436    0.0000 C   0  0  0  0  0  0  0  0  0  0  0  0
    4.1780    0.7564    0.0000 C   0  0  0  0  0  0  0  0  0  0  0  0
    5.4795    1.5022    0.0000 N   0  0  0  0  0  0  0  0  0  0  0  0
    5.4843    3.0022    0.0000 O   0  0  0  0  0  0  0  0  0  0  0  0
    6.7761    0.7480    0.0000 O   0  0  0  0  0  0  0  0  0  0  0  0
    2.8814    1.5105    0.0000 C   0  0  0  0  0  0  0  0  0  0  0  0
  1  2  1  0
  2  3  1  0
  2  4  1  0
  4  5  1  6
  5  6  1  0
  7  6  1  6
  7  8  1  0
  7  9  1  0
  9 10  1  6
 10 11  1  0
 11 12  1  0
 12 13  2  0
 12 14  1  0
 14 15  2  0
 15 16  1  0
 16 17  1  0
 17 18  2  0
 17 19  1  0
 16 20  2  0
 20 21  1  0
 21 22  1  0
 22 23  2  0
 22 24  1  0
 21 25  2  0
  9  2  1  0
 25 14  1  0
  8  4  1  0
M  CHG  4  17   1  19  -1  22   1  24  -1
M  END
