
     RDKit          2D

 25 29  0  0  0  0  0  0  0  0999 V2000
    1.6840   -2.2752    0.0000 C   0  0  0  0  0  0  0  0  0  0  0  0
    0.3679   -1.5557    0.0000 C   0  0  0  0  0  0  0  0  0  0  0  0
   -0.9133   -2.3357    0.0000 C   0  0  0  0  0  0  0  0  0  0  0  0
   -2.2295   -1.6162    0.0000 C   0  0  0  0  0  0  0  0  0  0  0  0
   -3.6891   -1.9622    0.0000 O   0  0  0  0  0  0  0  0  0  0  0  0
   -4.4691   -0.6810    0.0000 C   0  0  0  0  0  0  0  0  0  0  0  0
   -5.9642   -0.5590    0.0000 O   0  0  0  0  0  0  0  0  0  0  0  0
   -3.5806    0.6029    0.0000 C   0  0  0  0  0  0  0  0  0  0  0  0
   -4.8968    1.3224    0.0000 O   0  0  0  0  0  0  0  0  0  0  0  0
   -3.6156    2.1025    0.0000 C   0  0  0  0  0  0  0  0  0  0  0  0
   -2.3344    2.8826    0.0000 C   0  0  0  0  0  0  0  0  0  0  0  0
   -1.0182    2.1631    0.0000 C   0  0  0  0  0  0  0  0  0  0  0  0
   -0.9833    0.6635    0.0000 C   0  0  0  0  0  0  0  0  0  0  0  0
    0.3329   -0.0561    0.0000 C   0  0  0  0  0  0  0  0  0  0  0  0
    0.8130    1.3650    0.0000 C   0  0  0  0  0  0  0  0  0  0  0  0
    1.8158   -0.2820    0.0000 C   0  0  0  0  0  0  0  0  0  0  0  0
    2.7529    0.8892    0.0000 C   0  0  0  0  0  0  0  0  0  0  0  0
    4.2358    0.6632    0.0000 C   0  0  0  0  0  0  0  0  0  0  0  0
    5.2902    1.7301    0.0000 C   0  0  0  0  0  0  0  0  0  0  0  0
    6.6307    1.0569    0.0000 C   0  0  0  0  0  0  0  0  0  0  0  0
    6.4047   -0.4260    0.0000 O   0  0  0  0  0  0  0  0  0  0  0  0
    4.9246   -0.6693    0.0000 C   0  0  0  0  0  0  0  0  0  0  0  0
    4.2515   -2.0098    0.0000 O   0  0  0  0  0  0  0  0  0  0  0  0
   -2.2645   -0.1166    0.0000 C   0  0  0  0  0  0  0  0  0  0  0  0
   -3.5457   -0.8967    0.0000 C   0  0  0  0  0  0  0  0  0  0  0  0
  2  1  1  1
  2  3  1  0
  4  3  1  1
  4  5  1  0
  5  6  1  0
  6  7  2  0
  6  8  1  0
  8  9  1  6
  9 10  1  0
 10 11  1  6
 11 12  1  0
 13 12  1  1
 13 14  1  0
 14 15  1  1
 14 16  1  0
 16 17  1  0
 17 18  1  0
 18 19  2  0
 19 20  1  0
 20 21  1  0
 21 22  1  0
 22 23  2  0
 13 24  1  0
 24 25  1  6
 14  2  1  0
 22 18  1  0
 24  4  1  0
 10  8  1  0
 24  8  1  0
M  END
