
     RDKit          2D

 25 30  0  0  0  0  0  0  0  0999 V2000
   -6.3125   -0.0423    0.0000 C   0  0  0  0  0  0  0  0  0  0  0  0
   -5.0398   -0.8361    0.0000 O   0  0  0  0  0  0  0  0  0  0  0  0
   -3.7160   -0.1308    0.0000 C   0  0  0  0  0  0  0  0  0  0  0  0
   -3.6649    1.3683    0.0000 C   0  0  0  0  0  0  0  0  0  0  0  0
   -2.3410    2.0736    0.0000 C   0  0  0  0  0  0  0  0  0  0  0  0
   -1.0683    1.2797    0.0000 C   0  0  0  0  0  0  0  0  0  0  0  0
   -1.1194   -0.2194    0.0000 C   0  0  0  0  0  0  0  0  0  0  0  0
   -2.4433   -0.9247    0.0000 C   0  0  0  0  0  0  0  0  0  0  0  0
    0.1533   -1.0132    0.0000 N   0  0  0  0  0  0  0  0  0  0  0  0
    0.4150   -2.4902    0.0000 C   0  0  0  0  0  0  0  0  0  0  0  0
   -0.6261   -3.5701    0.0000 O   0  0  0  0  0  0  0  0  0  0  0  0
    1.9006   -2.6978    0.0000 C   0  0  0  0  0  0  0  0  0  0  0  0
    2.5570   -1.3491    0.0000 C   0  0  0  0  0  0  0  0  0  0  0  0
    3.9986   -0.9344    0.0000 C   0  0  0  0  0  0  0  0  0  0  0  0
    4.3603    0.5213    0.0000 C   0  0  0  0  0  0  0  0  0  0  0  0
    3.2804    1.5624    0.0000 C   0  0  0  0  0  0  0  0  0  0  0  0
    1.8388    1.1478    0.0000 N   0  0  0  0  0  0  0  0  0  0  0  0
    1.1481    1.5458    0.0000 O   0  0  0  0  0  0  0  0  0  0  0  0
    0.9277    1.4967    0.0000 C   0  0  0  0  0  0  0  0  0  0  0  0
    1.1675    1.2827    0.0000 C   0  0  0  0  0  0  0  0  0  0  0  0
    0.2556    1.9850    0.0000 C   0  0  0  0  0  0  0  0  0  0  0  0
    1.5283    1.1912    0.0000 C   0  0  0  0  0  0  0  0  0  0  0  0
    0.3800    0.2261    0.0000 C   0  0  0  0  0  0  0  0  0  0  0  0
    0.9430   -1.1643    0.0000 C   0  0  0  0  0  0  0  0  0  0  0  0
    1.4772   -0.3080    0.0000 C   0  0  0  0  0  0  0  0  0  0  0  0
  1  2  1  0
  2  3  1  0
  3  4  2  0
  4  5  1  0
  5  6  2  0
  6  7  1  0
  7  8  2  0
  7  9  1  0
  9 10  1  0
 10 11  2  0
 10 12  1  0
 13 12  1  1
 13 14  1  0
 14 15  2  0
 15 16  1  0
 16 17  1  0
 17 18  1  6
 17 19  1  0
 19 20  1  0
 21 20  1  1
 21 22  1  0
 22 23  1  6
 23 24  1  0
 22 25  1  0
  8  3  1  0
 25  9  1  1
 21  6  1  0
 24 13  1  0
 25 13  1  0
 25 17  1  0
M  CHG  2  17   1  18  -1
M  END
