
     RDKit          2D

 25 27  0  0  0  0  0  0  0  0999 V2000
   -8.8727    1.6101    0.0000 C   0  0  0  0  0  0  0  0  0  0  0  0
   -7.8677    0.4965    0.0000 C   0  0  0  0  0  0  0  0  0  0  0  0
   -6.4008    0.8101    0.0000 O   0  0  0  0  0  0  0  0  0  0  0  0
   -5.3958   -0.3034    0.0000 C   0  0  0  0  0  0  0  0  0  0  0  0
   -5.8576   -1.7305    0.0000 O   0  0  0  0  0  0  0  0  0  0  0  0
   -3.9290    0.0102    0.0000 N   0  0  0  0  0  0  0  0  0  0  0  0
   -3.4671    1.4373    0.0000 C   0  0  0  0  0  0  0  0  0  0  0  0
   -2.0003    1.7509    0.0000 C   0  0  0  0  0  0  0  0  0  0  0  0
   -0.9953    0.6374    0.0000 N   0  0  0  0  0  0  0  0  0  0  0  0
    0.4716    0.9510    0.0000 C   0  0  0  0  0  0  0  0  0  0  0  0
    1.4766   -0.1625    0.0000 C   0  0  0  0  0  0  0  0  0  0  0  0
    1.0148   -1.5897    0.0000 C   0  0  0  0  0  0  0  0  0  0  0  0
    2.0198   -2.7032    0.0000 C   0  0  0  0  0  0  0  0  0  0  0  0
    1.5579   -4.1303    0.0000 O   0  0  0  0  0  0  0  0  0  0  0  0
    3.4866   -2.3896    0.0000 O   0  0  0  0  0  0  0  0  0  0  0  0
    3.9485   -0.9625    0.0000 C   0  0  0  0  0  0  0  0  0  0  0  0
    5.4153   -0.6489    0.0000 C   0  0  0  0  0  0  0  0  0  0  0  0
    5.8772    0.7783    0.0000 C   0  0  0  0  0  0  0  0  0  0  0  0
    7.3440    1.0919    0.0000 C   0  0  0  0  0  0  0  0  0  0  0  0
    4.8722    1.8918    0.0000 C   0  0  0  0  0  0  0  0  0  0  0  0
    5.3340    3.3189    0.0000 C   0  0  0  0  0  0  0  0  0  0  0  0
    3.4053    1.5782    0.0000 C   0  0  0  0  0  0  0  0  0  0  0  0
    2.9435    0.1511    0.0000 C   0  0  0  0  0  0  0  0  0  0  0  0
   -1.4571   -0.7897    0.0000 C   0  0  0  0  0  0  0  0  0  0  0  0
   -2.9239   -1.1033    0.0000 C   0  0  0  0  0  0  0  0  0  0  0  0
  1  2  1  0
  2  3  1  0
  3  4  1  0
  4  5  2  0
  4  6  1  0
  6  7  1  0
  7  8  1  0
  8  9  1  0
  9 10  1  0
 10 11  1  0
 11 12  2  0
 12 13  1  0
 13 14  2  0
 13 15  1  0
 15 16  1  0
 16 17  2  0
 17 18  1  0
 18 19  1  0
 18 20  2  0
 20 21  1  0
 20 22  1  0
 22 23  2  0
  9 24  1  0
 24 25  1  0
 25  6  1  0
 23 11  1  0
 23 16  1  0
M  END
