
     RDKit          2D

 25 26  0  0  0  0  0  0  0  0999 V2000
   -2.7620   -5.2752    0.0000 C   0  0  0  0  0  0  0  0  0  0  0  0
   -2.1607   -3.9010    0.0000 O   0  0  0  0  0  0  0  0  0  0  0  0
   -3.0502   -2.6931    0.0000 C   0  0  0  0  0  0  0  0  0  0  0  0
   -2.4488   -1.3189    0.0000 C   0  0  0  0  0  0  0  0  0  0  0  0
   -0.9581   -1.1526    0.0000 O   0  0  0  0  0  0  0  0  0  0  0  0
   -3.3383   -0.1111    0.0000 N   0  0  0  0  0  0  0  0  0  0  0  0
   -4.8290   -0.2774    0.0000 C   0  0  0  0  0  0  0  0  0  0  0  0
   -5.7185    0.9304    0.0000 C   0  0  0  0  0  0  0  0  0  0  0  0
   -5.1171    2.3046    0.0000 N   0  0  0  0  0  0  0  0  0  0  0  0
   -3.6264    2.4710    0.0000 C   0  0  0  0  0  0  0  0  0  0  0  0
   -2.7370    1.2631    0.0000 C   0  0  0  0  0  0  0  0  0  0  0  0
   -1.2462    1.4295    0.0000 C   0  0  0  0  0  0  0  0  0  0  0  0
   -0.6449    2.8037    0.0000 O   0  0  0  0  0  0  0  0  0  0  0  0
   -0.3568    0.2216    0.0000 N   0  0  0  0  0  0  0  0  0  0  0  0
    1.1340    0.3880    0.0000 C   0  0  0  0  0  0  0  0  0  0  0  0
    2.0234   -0.8199    0.0000 C   0  0  0  0  0  0  0  0  0  0  0  0
    3.5142   -0.6536    0.0000 C   0  0  0  0  0  0  0  0  0  0  0  0
    4.4036   -1.8614    0.0000 C   0  0  0  0  0  0  0  0  0  0  0  0
    5.8943   -1.6951    0.0000 C   0  0  0  0  0  0  0  0  0  0  0  0
    6.4956   -0.3209    0.0000 C   0  0  0  0  0  0  0  0  0  0  0  0
    5.6062    0.8870    0.0000 C   0  0  0  0  0  0  0  0  0  0  0  0
    4.1155    0.7206    0.0000 C   0  0  0  0  0  0  0  0  0  0  0  0
    1.7353    1.7622    0.0000 C   0  0  0  0  0  0  0  0  0  0  0  0
    3.2260    1.9285    0.0000 N   0  0  0  0  0  0  0  0  0  0  0  0
    0.8459    2.9700    0.0000 O   0  0  0  0  0  0  0  0  0  0  0  0
  1  2  1  0
  2  3  1  0
  3  4  1  0
  4  5  2  0
  4  6  1  0
  6  7  1  0
  7  8  1  0
  8  9  1  0
  9 10  1  0
 10 11  1  0
 11 12  1  6
 12 13  2  0
 12 14  1  0
 14 15  1  0
 15 16  1  6
 16 17  1  0
 17 18  1  0
 18 19  1  0
 19 20  1  0
 20 21  1  0
 21 22  1  0
 15 23  1  0
 23 24  1  0
 23 25  2  0
 11  6  1  0
 22 17  1  0
M  END
