
     RDKit          2D

 25 28  0  0  0  0  0  0  0  0999 V2000
   -8.1142    0.7383    0.0000 C   0  0  0  0  0  0  0  0  0  0  0  0
   -6.7027    1.2458    0.0000 O   0  0  0  0  0  0  0  0  0  0  0  0
   -5.5574    0.2772    0.0000 C   0  0  0  0  0  0  0  0  0  0  0  0
   -5.8236   -1.1990    0.0000 O   0  0  0  0  0  0  0  0  0  0  0  0
   -4.1459    0.7848    0.0000 C   0  0  0  0  0  0  0  0  0  0  0  0
   -3.0005   -0.1838    0.0000 C   0  0  0  0  0  0  0  0  0  0  0  0
   -3.1110   -1.6798    0.0000 C   0  0  0  0  0  0  0  0  0  0  0  0
   -1.7224   -2.2470    0.0000 C   0  0  0  0  0  0  0  0  0  0  0  0
   -0.7538   -1.1017    0.0000 C   0  0  0  0  0  0  0  0  0  0  0  0
    0.7455   -1.0552    0.0000 C   0  0  0  0  0  0  0  0  0  0  0  0
    1.5355   -2.3303    0.0000 C   0  0  0  0  0  0  0  0  0  0  0  0
    3.0348   -2.2838    0.0000 C   0  0  0  0  0  0  0  0  0  0  0  0
    3.7441   -0.9621    0.0000 C   0  0  0  0  0  0  0  0  0  0  0  0
    5.2434   -0.9155    0.0000 C   0  0  0  0  0  0  0  0  0  0  0  0
    5.9527    0.4062    0.0000 C   0  0  0  0  0  0  0  0  0  0  0  0
    7.4520    0.4527    0.0000 O   0  0  0  0  0  0  0  0  0  0  0  0
    5.1627    1.6813    0.0000 C   0  0  0  0  0  0  0  0  0  0  0  0
    3.6635    1.6348    0.0000 C   0  0  0  0  0  0  0  0  0  0  0  0
    2.9541    0.3131    0.0000 C   0  0  0  0  0  0  0  0  0  0  0  0
    2.1642    1.5882    0.0000 C   0  0  0  0  0  0  0  0  0  0  0  0
    1.4549    0.2665    0.0000 C   0  0  0  0  0  0  0  0  0  0  0  0
    0.6649    1.5417    0.0000 C   0  0  0  0  0  0  0  0  0  0  0  0
   -0.8344    1.4951    0.0000 C   0  0  0  0  0  0  0  0  0  0  0  0
   -1.5437    0.1734    0.0000 C   0  0  0  0  0  0  0  0  0  0  0  0
   -2.4626    1.3590    0.0000 C   0  0  0  0  0  0  0  0  0  0  0  0
  1  2  1  0
  2  3  1  0
  3  4  2  0
  3  5  1  0
  6  5  1  6
  6  7  1  0
  7  8  1  0
  9  8  1  6
  9 10  1  0
 10 11  1  1
 11 12  1  0
 13 12  1  6
 13 14  1  0
 14 15  1  0
 15 16  1  6
 15 17  1  0
 17 18  1  0
 18 19  1  0
 19 20  1  6
 19 21  1  0
 21 22  1  6
 22 23  1  0
 23 24  1  0
 24 25  1  6
 24  6  1  0
 24  9  1  0
 21 10  1  0
 19 13  1  0
M  END
