
     RDKit          2D

 25 27  0  0  0  0  0  0  0  0999 V2000
   -4.4780   -3.0257    0.0000 C   0  0  0  0  0  0  0  0  0  0  0  0
   -3.8066   -1.6843    0.0000 O   0  0  0  0  0  0  0  0  0  0  0  0
   -2.3092   -1.5951    0.0000 C   0  0  0  0  0  0  0  0  0  0  0  0
   -1.4833   -2.8472    0.0000 C   0  0  0  0  0  0  0  0  0  0  0  0
    0.0141   -2.7580    0.0000 C   0  0  0  0  0  0  0  0  0  0  0  0
    0.8400   -4.0101    0.0000 O   0  0  0  0  0  0  0  0  0  0  0  0
    0.6855   -1.4167    0.0000 C   0  0  0  0  0  0  0  0  0  0  0  0
    2.1828   -1.3274    0.0000 C   0  0  0  0  0  0  0  0  0  0  0  0
    3.0088   -2.5796    0.0000 O   0  0  0  0  0  0  0  0  0  0  0  0
    2.8542    0.0139    0.0000 C   0  0  0  0  0  0  0  0  0  0  0  0
    4.3516    0.1031    0.0000 C   0  0  0  0  0  0  0  0  0  0  0  0
    5.1775   -1.1490    0.0000 O   0  0  0  0  0  0  0  0  0  0  0  0
    5.0230    1.4445    0.0000 C   0  0  0  0  0  0  0  0  0  0  0  0
    4.1970    2.6966    0.0000 C   0  0  0  0  0  0  0  0  0  0  0  0
    2.6997    2.6074    0.0000 C   0  0  0  0  0  0  0  0  0  0  0  0
    1.8738    3.8595    0.0000 O   0  0  0  0  0  0  0  0  0  0  0  0
    2.0283    1.2660    0.0000 C   0  0  0  0  0  0  0  0  0  0  0  0
    0.5309    1.1768    0.0000 O   0  0  0  0  0  0  0  0  0  0  0  0
   -0.1405   -0.1645    0.0000 C   0  0  0  0  0  0  0  0  0  0  0  0
   -1.6378   -0.2537    0.0000 C   0  0  0  0  0  0  0  0  0  0  0  0
   -2.4637    0.9984    0.0000 C   0  0  0  0  0  0  0  0  0  0  0  0
   -3.9611    0.9092    0.0000 C   0  0  0  0  0  0  0  0  0  0  0  0
   -4.7870    2.1613    0.0000 C   0  0  0  0  0  0  0  0  0  0  0  0
   -6.2844    2.0721    0.0000 C   0  0  0  0  0  0  0  0  0  0  0  0
   -4.1156    3.5026    0.0000 C   0  0  0  0  0  0  0  0  0  0  0  0
  1  2  1  0
  2  3  1  0
  3  4  2  0
  4  5  1  0
  5  6  1  0
  5  7  2  0
  7  8  1  0
  8  9  2  0
  8 10  1  0
 10 11  2  0
 11 12  1  0
 11 13  1  0
 13 14  2  0
 14 15  1  0
 15 16  1  0
 15 17  2  0
 17 18  1  0
 18 19  1  0
 19 20  2  0
 20 21  1  0
 21 22  1  0
 22 23  2  0
 23 24  1  0
 23 25  1  0
 20  3  1  0
 19  7  1  0
 17 10  1  0
M  END
