
     RDKit          2D

 25 26  0  0  0  0  0  0  0  0999 V2000
   -0.2001    3.6381    0.0000 C   0  0  0  0  0  0  0  0  0  0  0  0
    0.8096    2.5289    0.0000 C   0  0  0  0  0  0  0  0  0  0  0  0
    2.2751    2.8487    0.0000 C   0  0  0  0  0  0  0  0  0  0  0  0
    3.2849    1.7394    0.0000 C   0  0  0  0  0  0  0  0  0  0  0  0
    2.8291    0.3103    0.0000 C   0  0  0  0  0  0  0  0  0  0  0  0
    1.3636   -0.0095    0.0000 C   0  0  0  0  0  0  0  0  0  0  0  0
   -0.1019   -0.3293    0.0000 C   0  0  0  0  0  0  0  0  0  0  0  0
    0.9078   -1.4386    0.0000 C   0  0  0  0  0  0  0  0  0  0  0  0
    1.9175   -2.5478    0.0000 C   0  0  0  0  0  0  0  0  0  0  0  0
    3.3830   -2.2280    0.0000 C   0  0  0  0  0  0  0  0  0  0  0  0
    3.8388   -0.7989    0.0000 C   0  0  0  0  0  0  0  0  0  0  0  0
    4.7559    0.3881    0.0000 C   0  0  0  0  0  0  0  0  0  0  0  0
    5.1670   -1.4959    0.0000 C   0  0  0  0  0  0  0  0  0  0  0  0
    6.4348   -0.6942    0.0000 O   0  0  0  0  0  0  0  0  0  0  0  0
    5.2275   -2.9947    0.0000 O   0  0  0  0  0  0  0  0  0  0  0  0
    0.3538    1.0998    0.0000 C   0  0  0  0  0  0  0  0  0  0  0  0
   -1.1117    0.7800    0.0000 C   0  0  0  0  0  0  0  0  0  0  0  0
   -2.1214    1.8892    0.0000 C   0  0  0  0  0  0  0  0  0  0  0  0
   -3.5869    1.5694    0.0000 C   0  0  0  0  0  0  0  0  0  0  0  0
   -4.5966    2.6787    0.0000 C   0  0  0  0  0  0  0  0  0  0  0  0
   -4.0427    0.1403    0.0000 C   0  0  0  0  0  0  0  0  0  0  0  0
   -5.5082   -0.1795    0.0000 C   0  0  0  0  0  0  0  0  0  0  0  0
   -5.9640   -1.6086    0.0000 O   0  0  0  0  0  0  0  0  0  0  0  0
   -7.4295   -1.9284    0.0000 C   0  0  0  0  0  0  0  0  0  0  0  0
   -7.8853   -3.3575    0.0000 O   0  0  0  0  0  0  0  0  0  0  0  0
  1  2  2  0
  2  3  1  0
  3  4  1  0
  5  4  1  1
  5  6  1  0
  6  7  1  1
  6  8  1  0
  8  9  1  0
  9 10  1  0
 10 11  1  0
 11 12  1  6
 11 13  1  0
 13 14  2  0
 13 15  1  0
  6 16  1  0
 16 17  1  1
 17 18  1  0
 18 19  1  0
 19 20  1  1
 19 21  1  0
 21 22  1  0
 22 23  1  0
 23 24  1  0
 24 25  2  0
 16  2  1  0
 11  5  1  0
M  END
