
     RDKit          2D

 25 27  0  0  0  0  0  0  0  0999 V2000
   -6.5950   -1.1987    0.0000 C   0  0  0  0  0  0  0  0  0  0  0  0
   -5.1806   -1.6980    0.0000 O   0  0  0  0  0  0  0  0  0  0  0  0
   -4.0410   -0.7227    0.0000 C   0  0  0  0  0  0  0  0  0  0  0  0
   -4.3158    0.7519    0.0000 C   0  0  0  0  0  0  0  0  0  0  0  0
   -3.1762    1.7273    0.0000 C   0  0  0  0  0  0  0  0  0  0  0  0
   -3.4510    3.2019    0.0000 O   0  0  0  0  0  0  0  0  0  0  0  0
   -1.7617    1.2280    0.0000 C   0  0  0  0  0  0  0  0  0  0  0  0
   -0.6221    2.2033    0.0000 C   0  0  0  0  0  0  0  0  0  0  0  0
   -0.8969    3.6779    0.0000 O   0  0  0  0  0  0  0  0  0  0  0  0
    0.7924    1.7040    0.0000 C   0  0  0  0  0  0  0  0  0  0  0  0
    1.9320    2.6794    0.0000 O   0  0  0  0  0  0  0  0  0  0  0  0
    1.0672    0.2294    0.0000 C   0  0  0  0  0  0  0  0  0  0  0  0
    2.4817   -0.2698    0.0000 C   0  0  0  0  0  0  0  0  0  0  0  0
    2.7565   -1.7444    0.0000 C   0  0  0  0  0  0  0  0  0  0  0  0
    4.1710   -2.2437    0.0000 C   0  0  0  0  0  0  0  0  0  0  0  0
    5.3106   -1.2684    0.0000 C   0  0  0  0  0  0  0  0  0  0  0  0
    6.7251   -1.7677    0.0000 O   0  0  0  0  0  0  0  0  0  0  0  0
    5.0358    0.2062    0.0000 C   0  0  0  0  0  0  0  0  0  0  0  0
    6.1754    1.1815    0.0000 O   0  0  0  0  0  0  0  0  0  0  0  0
    3.6213    0.7055    0.0000 C   0  0  0  0  0  0  0  0  0  0  0  0
   -0.0724   -0.7459    0.0000 O   0  0  0  0  0  0  0  0  0  0  0  0
   -1.4869   -0.2466    0.0000 C   0  0  0  0  0  0  0  0  0  0  0  0
   -2.6265   -1.2219    0.0000 C   0  0  0  0  0  0  0  0  0  0  0  0
   -2.3516   -2.6965    0.0000 O   0  0  0  0  0  0  0  0  0  0  0  0
   -3.4913   -3.6719    0.0000 C   0  0  0  0  0  0  0  0  0  0  0  0
  1  2  1  0
  2  3  1  0
  3  4  2  0
  4  5  1  0
  5  6  1  0
  5  7  2  0
  7  8  1  0
  8  9  2  0
  8 10  1  0
 10 11  1  1
 10 12  1  0
 12 13  1  1
 13 14  2  0
 14 15  1  0
 15 16  2  0
 16 17  1  0
 16 18  1  0
 18 19  1  0
 18 20  2  0
 12 21  1  0
 21 22  1  0
 22 23  2  0
 23 24  1  0
 24 25  1  0
 23  3  1  0
 22  7  1  0
 20 13  1  0
M  END
