
     RDKit          2D

 25 28  0  0  0  0  0  0  0  0999 V2000
   -7.7063    1.3067    0.0000 N   0  0  0  0  0  0  0  0  0  0  0  0
   -7.9498   -0.1734    0.0000 C   0  0  0  0  0  0  0  0  0  0  0  0
   -9.3534   -0.7025    0.0000 N   0  0  0  0  0  0  0  0  0  0  0  0
   -6.7898   -1.1244    0.0000 N   0  0  0  0  0  0  0  0  0  0  0  0
   -5.3863   -0.5953    0.0000 C   0  0  0  0  0  0  0  0  0  0  0  0
   -5.1427    0.8848    0.0000 C   0  0  0  0  0  0  0  0  0  0  0  0
   -3.7391    1.4139    0.0000 C   0  0  0  0  0  0  0  0  0  0  0  0
   -2.5791    0.4630    0.0000 C   0  0  0  0  0  0  0  0  0  0  0  0
   -1.1755    0.9921    0.0000 C   0  0  0  0  0  0  0  0  0  0  0  0
   -0.0155    0.0411    0.0000 N   0  0  0  0  0  0  0  0  0  0  0  0
    1.3881    0.5702    0.0000 C   0  0  0  0  0  0  0  0  0  0  0  0
    1.6316    2.0503    0.0000 O   0  0  0  0  0  0  0  0  0  0  0  0
    2.5481   -0.3808    0.0000 N   0  0  0  0  0  0  0  0  0  0  0  0
    3.9517    0.1484    0.0000 C   0  0  0  0  0  0  0  0  0  0  0  0
    5.1117   -0.8026    0.0000 C   0  0  0  0  0  0  0  0  0  0  0  0
    6.5153   -0.2735    0.0000 C   0  0  0  0  0  0  0  0  0  0  0  0
    6.7588    1.2066    0.0000 C   0  0  0  0  0  0  0  0  0  0  0  0
    5.5988    2.1576    0.0000 C   0  0  0  0  0  0  0  0  0  0  0  0
    4.3390   -0.8791    0.0000 C   0  0  0  0  0  0  0  0  0  0  0  0
    4.8681   -2.2827    0.0000 C   0  0  0  0  0  0  0  0  0  0  0  0
    6.2717   -1.7536    0.0000 C   0  0  0  0  0  0  0  0  0  0  0  0
    3.7081   -1.3317    0.0000 C   0  0  0  0  0  0  0  0  0  0  0  0
    4.1952    1.6285    0.0000 C   0  0  0  0  0  0  0  0  0  0  0  0
   -2.8227   -1.0171    0.0000 C   0  0  0  0  0  0  0  0  0  0  0  0
   -4.2262   -1.5463    0.0000 C   0  0  0  0  0  0  0  0  0  0  0  0
  1  2  2  0
  2  3  1  0
  2  4  1  0
  4  5  1  0
  5  6  2  0
  6  7  1  0
  7  8  2  0
  8  9  1  0
  9 10  1  0
 10 11  1  0
 11 12  2  0
 11 13  1  0
 14 13  1  6
 14 15  1  0
 16 15  1  6
 16 17  1  0
 18 17  1  6
 18 19  1  0
 20 19  1  1
 20 21  1  0
 20 22  1  0
 18 23  1  0
  8 24  1  0
 24 25  2  0
 25  5  1  0
 22 14  1  0
 23 14  1  0
 21 16  1  0
M  END
