
     RDKit          2D

 25 27  0  0  0  0  0  0  0  0999 V2000
   -9.9965   -0.1867    0.0000 C   0  0  0  0  0  0  0  0  0  0  0  0
   -8.8361   -1.1372    0.0000 O   0  0  0  0  0  0  0  0  0  0  0  0
   -7.4328   -0.6075    0.0000 C   0  0  0  0  0  0  0  0  0  0  0  0
   -7.1898    0.8727    0.0000 C   0  0  0  0  0  0  0  0  0  0  0  0
   -5.7865    1.4024    0.0000 C   0  0  0  0  0  0  0  0  0  0  0  0
   -4.6260    0.4519    0.0000 C   0  0  0  0  0  0  0  0  0  0  0  0
   -3.2227    0.9816    0.0000 C   0  0  0  0  0  0  0  0  0  0  0  0
   -2.0623    0.0312    0.0000 C   0  0  0  0  0  0  0  0  0  0  0  0
   -0.6589    0.5609    0.0000 N   0  0  0  0  0  0  0  0  0  0  0  0
    0.5015   -0.3896    0.0000 C   0  0  0  0  0  0  0  0  0  0  0  0
    0.2586   -1.8698    0.0000 O   0  0  0  0  0  0  0  0  0  0  0  0
    1.9049    0.1401    0.0000 C   0  0  0  0  0  0  0  0  0  0  0  0
    2.3012    1.5868    0.0000 C   0  0  0  0  0  0  0  0  0  0  0  0
    1.3638    2.7578    0.0000 C   0  0  0  0  0  0  0  0  0  0  0  0
    3.7996    1.6569    0.0000 N   0  0  0  0  0  0  0  0  0  0  0  0
    4.3293    0.2535    0.0000 C   0  0  0  0  0  0  0  0  0  0  0  0
    5.7760   -0.1428    0.0000 C   0  0  0  0  0  0  0  0  0  0  0  0
    6.1561   -1.5938    0.0000 C   0  0  0  0  0  0  0  0  0  0  0  0
    7.6028   -1.9902    0.0000 C   0  0  0  0  0  0  0  0  0  0  0  0
    8.6693   -0.9355    0.0000 C   0  0  0  0  0  0  0  0  0  0  0  0
    8.2892    0.5156    0.0000 C   0  0  0  0  0  0  0  0  0  0  0  0
    6.8425    0.9119    0.0000 C   0  0  0  0  0  0  0  0  0  0  0  0
    3.1583   -0.6839    0.0000 S   0  0  0  0  0  0  0  0  0  0  0  0
   -4.8690   -1.0283    0.0000 C   0  0  0  0  0  0  0  0  0  0  0  0
   -6.2723   -1.5580    0.0000 C   0  0  0  0  0  0  0  0  0  0  0  0
  1  2  1  0
  2  3  1  0
  3  4  2  0
  4  5  1  0
  5  6  2  0
  6  7  1  0
  7  8  1  0
  8  9  1  0
  9 10  1  0
 10 11  2  0
 10 12  1  0
 12 13  2  0
 13 14  1  0
 13 15  1  0
 15 16  2  0
 16 17  1  0
 17 18  2  0
 18 19  1  0
 19 20  2  0
 20 21  1  0
 21 22  2  0
 16 23  1  0
  6 24  1  0
 24 25  2  0
 25  3  1  0
 23 12  1  0
 22 17  1  0
M  END
