
     RDKit          2D

 25 27  0  0  0  0  0  0  0  0999 V2000
   -1.9793    2.7296    0.0000 C   0  0  0  0  0  0  0  0  0  0  0  0
   -0.6400    2.0542    0.0000 C   0  0  0  0  0  0  0  0  0  0  0  0
    0.6146    2.8763    0.0000 C   0  0  0  0  0  0  0  0  0  0  0  0
    1.9539    2.2009    0.0000 C   0  0  0  0  0  0  0  0  0  0  0  0
    2.0386    0.7033    0.0000 C   0  0  0  0  0  0  0  0  0  0  0  0
    0.7840   -0.1189    0.0000 C   0  0  0  0  0  0  0  0  0  0  0  0
   -0.4706   -0.9411    0.0000 C   0  0  0  0  0  0  0  0  0  0  0  0
    0.8687   -1.6165    0.0000 C   0  0  0  0  0  0  0  0  0  0  0  0
    2.2081   -2.2919    0.0000 C   0  0  0  0  0  0  0  0  0  0  0  0
    3.4627   -1.4698    0.0000 C   0  0  0  0  0  0  0  0  0  0  0  0
    3.3780    0.0278    0.0000 C   0  0  0  0  0  0  0  0  0  0  0  0
    3.8106    1.4641    0.0000 C   0  0  0  0  0  0  0  0  0  0  0  0
    4.8675   -0.1488    0.0000 C   0  0  0  0  0  0  0  0  0  0  0  0
    5.7653    1.0529    0.0000 O   0  0  0  0  0  0  0  0  0  0  0  0
    5.4593   -1.5271    0.0000 O   0  0  0  0  0  0  0  0  0  0  0  0
    6.9489   -1.7038    0.0000 C   0  0  0  0  0  0  0  0  0  0  0  0
   -0.5553    0.5565    0.0000 C   0  0  0  0  0  0  0  0  0  0  0  0
   -1.8099   -0.2656    0.0000 C   0  0  0  0  0  0  0  0  0  0  0  0
   -3.1492    0.4098    0.0000 C   0  0  0  0  0  0  0  0  0  0  0  0
   -4.4038   -0.4123    0.0000 C   0  0  0  0  0  0  0  0  0  0  0  0
   -4.4761   -1.9106    0.0000 C   0  0  0  0  0  0  0  0  0  0  0  0
   -5.9234   -2.3048    0.0000 C   0  0  0  0  0  0  0  0  0  0  0  0
   -6.7456   -1.0502    0.0000 O   0  0  0  0  0  0  0  0  0  0  0  0
   -5.8064    0.1194    0.0000 C   0  0  0  0  0  0  0  0  0  0  0  0
   -6.2006    1.5667    0.0000 O   0  0  0  0  0  0  0  0  0  0  0  0
  1  2  2  0
  2  3  1  0
  3  4  1  0
  5  4  1  1
  5  6  1  0
  6  7  1  6
  6  8  1  0
  8  9  1  0
  9 10  1  0
 10 11  1  0
 11 12  1  1
 11 13  1  0
 13 14  2  0
 13 15  1  0
 15 16  1  0
  6 17  1  0
 17 18  1  1
 18 19  1  0
 19 20  1  0
 20 21  2  0
 21 22  1  0
 22 23  1  0
 23 24  1  0
 24 25  2  0
 17  2  1  0
 24 20  1  0
 11  5  1  0
M  END
