
     RDKit          2D

 25 27  0  0  0  0  0  0  0  0999 V2000
   -1.7600   -4.0117    0.0000 C   0  0  0  0  0  0  0  0  0  0  0  0
   -0.9153   -2.7721    0.0000 O   0  0  0  0  0  0  0  0  0  0  0  0
   -1.5664   -1.4208    0.0000 C   0  0  0  0  0  0  0  0  0  0  0  0
   -3.0622   -1.3090    0.0000 C   0  0  0  0  0  0  0  0  0  0  0  0
   -4.1462   -2.3459    0.0000 C   0  0  0  0  0  0  0  0  0  0  0  0
   -5.4673   -1.6354    0.0000 C   0  0  0  0  0  0  0  0  0  0  0  0
   -5.1998   -0.1594    0.0000 O   0  0  0  0  0  0  0  0  0  0  0  0
   -3.7134    0.0423    0.0000 C   0  0  0  0  0  0  0  0  0  0  0  0
   -2.8687    1.2818    0.0000 C   0  0  0  0  0  0  0  0  0  0  0  0
   -3.5198    2.6331    0.0000 O   0  0  0  0  0  0  0  0  0  0  0  0
   -2.6751    3.8727    0.0000 C   0  0  0  0  0  0  0  0  0  0  0  0
   -1.3728    1.1701    0.0000 C   0  0  0  0  0  0  0  0  0  0  0  0
   -0.7217   -0.1813    0.0000 C   0  0  0  0  0  0  0  0  0  0  0  0
    0.7741   -0.2930    0.0000 C   0  0  0  0  0  0  0  0  0  0  0  0
    1.6188    0.9465    0.0000 C   0  0  0  0  0  0  0  0  0  0  0  0
    3.1146    0.8348    0.0000 C   0  0  0  0  0  0  0  0  0  0  0  0
    3.7658   -0.5165    0.0000 C   0  0  0  0  0  0  0  0  0  0  0  0
    2.9211   -1.7561    0.0000 O   0  0  0  0  0  0  0  0  0  0  0  0
    5.2616   -0.6283    0.0000 C   0  0  0  0  0  0  0  0  0  0  0  0
    5.3734    0.8675    0.0000 C   0  0  0  0  0  0  0  0  0  0  0  0
    5.1499   -2.1241    0.0000 C   0  0  0  0  0  0  0  0  0  0  0  0
    6.7574   -0.7400    0.0000 O   0  0  0  0  0  0  0  0  0  0  0  0
    0.9677    2.2978    0.0000 C   0  0  0  0  0  0  0  0  0  0  0  0
    1.8124    3.5374    0.0000 O   0  0  0  0  0  0  0  0  0  0  0  0
   -0.5281    2.4096    0.0000 O   0  0  0  0  0  0  0  0  0  0  0  0
  1  2  1  0
  2  3  1  0
  3  4  2  0
  4  5  1  0
  5  6  2  0
  6  7  1  0
  7  8  1  0
  8  9  2  0
  9 10  1  0
 10 11  1  0
  9 12  1  0
 12 13  2  0
 13 14  1  0
 14 15  2  0
 15 16  1  0
 16 17  1  0
 17 18  1  1
 17 19  1  0
 19 20  1  0
 19 21  1  0
 19 22  1  0
 15 23  1  0
 23 24  2  0
 23 25  1  0
 13  3  1  0
  8  4  1  0
 25 12  1  0
M  END
