
     RDKit          2D

 26 31  0  0  0  0  0  0  0  0999 V2000
    5.1575    1.6864    0.0000 C   0  0  0  0  0  0  0  0  0  0  0  0
    3.8189    1.0094    0.0000 C   0  0  0  0  0  0  0  0  0  0  0  0
    3.5798   -0.4714    0.0000 C   0  0  0  0  0  0  0  0  0  0  0  0
    2.7667    0.7891    0.0000 C   0  0  0  0  0  0  0  0  0  0  0  0
    1.2685    0.7151    0.0000 C   0  0  0  0  0  0  0  0  0  0  0  0
    0.5835   -0.6193    0.0000 C   0  0  0  0  0  0  0  0  0  0  0  0
    1.3966   -1.8798    0.0000 C   0  0  0  0  0  0  0  0  0  0  0  0
    2.8948   -1.8058    0.0000 C   0  0  0  0  0  0  0  0  0  0  0  0
    3.7079   -3.0663    0.0000 O   0  0  0  0  0  0  0  0  0  0  0  0
   -0.8974   -0.3802    0.0000 C   0  0  0  0  0  0  0  0  0  0  0  0
   -0.6672   -1.8624    0.0000 C   0  0  0  0  0  0  0  0  0  0  0  0
    0.7316   -2.4042    0.0000 O   0  0  0  0  0  0  0  0  0  0  0  0
   -1.8358   -2.8029    0.0000 C   0  0  0  0  0  0  0  0  0  0  0  0
   -3.2345   -2.2611    0.0000 C   0  0  0  0  0  0  0  0  0  0  0  0
   -3.4647   -0.7789    0.0000 C   0  0  0  0  0  0  0  0  0  0  0  0
   -4.6332   -1.7193    0.0000 C   0  0  0  0  0  0  0  0  0  0  0  0
   -3.6948    0.7034    0.0000 C   0  0  0  0  0  0  0  0  0  0  0  0
   -2.5263    1.6438    0.0000 N   0  0  0  0  0  0  0  0  0  0  0  0
   -2.7564    3.1261    0.0000 C   0  0  0  0  0  0  0  0  0  0  0  0
   -4.1552    3.6678    0.0000 C   0  0  0  0  0  0  0  0  0  0  0  0
   -1.1275    1.1020    0.0000 C   0  0  0  0  0  0  0  0  0  0  0  0
    0.2110    1.7790    0.0000 C   0  0  0  0  0  0  0  0  0  0  0  0
    0.2032    0.2790    0.0000 C   0  0  0  0  0  0  0  0  0  0  0  0
   -2.0659   -1.3206    0.0000 C   0  0  0  0  0  0  0  0  0  0  0  0
    2.4845    1.6945    0.0000 C   0  0  0  0  0  0  0  0  0  0  0  0
    2.2543    3.1767    0.0000 O   0  0  0  0  0  0  0  0  0  0  0  0
  1  2  2  0
  3  2  1  6
  3  4  1  0
  5  4  1  1
  5  6  1  0
  6  7  1  1
  7  8  1  0
  8  9  2  0
  6 10  1  0
 10 11  1  1
 11 12  2  0
 11 13  1  0
 13 14  1  0
 14 15  1  0
 15 16  1  6
 15 17  1  0
 17 18  1  0
 18 19  1  0
 19 20  1  0
 21 18  1  6
 21 22  1  0
 22 23  1  6
 24 23  1  6
  5 25  1  0
 25 26  1  1
 25  2  1  0
  8  3  1  0
 21 10  1  0
 22  5  1  0
 24 10  1  0
 24 15  1  0
M  END
