
     RDKit          2D

 26 27  0  0  0  0  0  0  0  0999 V2000
   -3.7028    3.8570    0.0000 C   0  0  0  0  0  0  0  0  0  0  0  0
   -4.0416    2.3957    0.0000 C   0  0  0  0  0  0  0  0  0  0  0  0
   -5.4230    1.8110    0.0000 C   0  0  0  0  0  0  0  0  0  0  0  0
   -6.7080    2.5848    0.0000 O   0  0  0  0  0  0  0  0  0  0  0  0
   -5.2937    0.3166    0.0000 O   0  0  0  0  0  0  0  0  0  0  0  0
   -3.8325   -0.0223    0.0000 C   0  0  0  0  0  0  0  0  0  0  0  0
   -3.7032   -1.5167    0.0000 C   0  0  0  0  0  0  0  0  0  0  0  0
   -2.7203   -2.6497    0.0000 C   0  0  0  0  0  0  0  0  0  0  0  0
   -3.4941   -3.9347    0.0000 C   0  0  0  0  0  0  0  0  0  0  0  0
   -4.9938   -3.9071    0.0000 O   0  0  0  0  0  0  0  0  0  0  0  0
   -1.2590   -2.9886    0.0000 C   0  0  0  0  0  0  0  0  0  0  0  0
    0.1223   -2.4039    0.0000 C   0  0  0  0  0  0  0  0  0  0  0  0
    0.8961   -1.1189    0.0000 C   0  0  0  0  0  0  0  0  0  0  0  0
    0.7669    0.3755    0.0000 C   0  0  0  0  0  0  0  0  0  0  0  0
    2.1482    0.9603    0.0000 C   0  0  0  0  0  0  0  0  0  0  0  0
    3.3453    0.0564    0.0000 O   0  0  0  0  0  0  0  0  0  0  0  0
    4.7266    0.6411    0.0000 C   0  0  0  0  0  0  0  0  0  0  0  0
    4.9109    2.1297    0.0000 O   0  0  0  0  0  0  0  0  0  0  0  0
    5.9237   -0.2628    0.0000 C   0  0  0  0  0  0  0  0  0  0  0  0
    5.0198   -1.4599    0.0000 C   0  0  0  0  0  0  0  0  0  0  0  0
    7.1207   -1.1667    0.0000 O   0  0  0  0  0  0  0  0  0  0  0  0
    6.8276    0.9343    0.0000 C   0  0  0  0  0  0  0  0  0  0  0  0
    8.3162    0.7500    0.0000 O   0  0  0  0  0  0  0  0  0  0  0  0
   -0.2161    1.5086    0.0000 C   0  0  0  0  0  0  0  0  0  0  0  0
   -1.6773    1.8474    0.0000 C   0  0  0  0  0  0  0  0  0  0  0  0
   -3.0587    1.2627    0.0000 C   0  0  0  0  0  0  0  0  0  0  0  0
  1  2  2  0
  2  3  1  0
  3  4  2  0
  3  5  1  0
  5  6  1  0
  6  7  1  6
  7  8  1  0
  8  9  1  0
  9 10  1  0
  8 11  2  0
 11 12  1  0
 12 13  1  0
 13 14  1  0
 14 15  1  0
 15 16  1  0
 16 17  1  0
 17 18  2  0
 17 19  1  0
 19 20  1  1
 19 21  1  0
 19 22  1  0
 22 23  1  0
 14 24  2  0
 24 25  1  0
 26 25  1  6
 26  2  1  0
 26  6  1  0
M  END
