
     RDKit          2D

 26 28  0  0  0  0  0  0  0  0999 V2000
    5.3219   -0.0342    0.0000 C   0  0  0  0  0  0  0  0  0  0  0  0
    4.5707    1.2642    0.0000 C   0  0  0  0  0  0  0  0  0  0  0  0
    5.3195    2.5639    0.0000 C   0  0  0  0  0  0  0  0  0  0  0  0
    3.0707    1.2628    0.0000 C   0  0  0  0  0  0  0  0  0  0  0  0
    2.3195    2.5612    0.0000 O   0  0  0  0  0  0  0  0  0  0  0  0
    2.3219   -0.0369    0.0000 O   0  0  0  0  0  0  0  0  0  0  0  0
    0.8219   -0.0382    0.0000 C   0  0  0  0  0  0  0  0  0  0  0  0
    0.3076    1.3708    0.0000 C   0  0  0  0  0  0  0  0  0  0  0  0
   -0.9921    2.1196    0.0000 C   0  0  0  0  0  0  0  0  0  0  0  0
    0.4748    2.4328    0.0000 C   0  0  0  0  0  0  0  0  0  0  0  0
   -1.6010    0.7488    0.0000 O   0  0  0  0  0  0  0  0  0  0  0  0
   -3.0929    0.9042    0.0000 C   0  0  0  0  0  0  0  0  0  0  0  0
   -3.4061    2.3711    0.0000 C   0  0  0  0  0  0  0  0  0  0  0  0
   -2.1078    3.1223    0.0000 C   0  0  0  0  0  0  0  0  0  0  0  0
   -1.9523    4.6142    0.0000 O   0  0  0  0  0  0  0  0  0  0  0  0
   -3.4309   -0.7921    0.0000 C   0  0  0  0  0  0  0  0  0  0  0  0
   -4.8400   -1.3064    0.0000 C   0  0  0  0  0  0  0  0  0  0  0  0
   -5.9899   -0.3433    0.0000 O   0  0  0  0  0  0  0  0  0  0  0  0
   -2.4657   -1.9403    0.0000 C   0  0  0  0  0  0  0  0  0  0  0  0
   -0.9882   -2.1994    0.0000 C   0  0  0  0  0  0  0  0  0  0  0  0
   -0.6750   -3.6664    0.0000 O   0  0  0  0  0  0  0  0  0  0  0  0
    0.8169   -3.8218    0.0000 C   0  0  0  0  0  0  0  0  0  0  0  0
    1.5681   -5.1202    0.0000 O   0  0  0  0  0  0  0  0  0  0  0  0
    1.4258   -2.4509    0.0000 C   0  0  0  0  0  0  0  0  0  0  0  0
    2.8927   -2.1377    0.0000 C   0  0  0  0  0  0  0  0  0  0  0  0
    0.3101   -1.4483    0.0000 C   0  0  0  0  0  0  0  0  0  0  0  0
  1  2  2  0
  2  3  1  0
  2  4  1  0
  4  5  2  0
  4  6  1  0
  7  6  1  1
  7  8  1  0
  8  9  1  0
  9 10  1  1
  9 11  1  0
 11 12  1  0
 12 13  2  0
 13 14  1  0
 14 15  2  0
 12 16  1  0
 16 17  1  0
 17 18  1  0
 16 19  2  0
 19 20  1  0
 20 21  1  6
 21 22  1  0
 22 23  2  0
 22 24  1  0
 24 25  2  0
 26 24  1  1
 26  7  1  0
 14  9  1  0
 26 20  1  0
M  END
