
     RDKit          2D

 26 30  0  0  0  0  0  0  0  0999 V2000
    5.4036    0.7315    0.0000 C   0  0  0  0  0  0  0  0  0  0  0  0
    3.3481   -0.0527    0.0000 C   0  0  0  0  0  0  0  0  0  0  0  0
    3.7645   -1.2843    0.0000 C   0  0  0  0  0  0  0  0  0  0  0  0
    4.0022    0.1968    0.0000 C   0  0  0  0  0  0  0  0  0  0  0  0
    2.8384    1.1431    0.0000 C   0  0  0  0  0  0  0  0  0  0  0  0
    1.4369    0.6084    0.0000 C   0  0  0  0  0  0  0  0  0  0  0  0
    0.2731    1.5548    0.0000 C   0  0  0  0  0  0  0  0  0  0  0  0
    0.5108    3.0358    0.0000 O   0  0  0  0  0  0  0  0  0  0  0  0
   -1.1284    1.0201    0.0000 C   0  0  0  0  0  0  0  0  0  0  0  0
   -1.3660   -0.4610    0.0000 C   0  0  0  0  0  0  0  0  0  0  0  0
   -2.7675   -0.9957    0.0000 C   0  0  0  0  0  0  0  0  0  0  0  0
   -3.9313   -0.0493    0.0000 C   0  0  0  0  0  0  0  0  0  0  0  0
   -3.0051   -2.4767    0.0000 C   0  0  0  0  0  0  0  0  0  0  0  0
   -1.8413   -3.4231    0.0000 C   0  0  0  0  0  0  0  0  0  0  0  0
   -0.4399   -2.8884    0.0000 C   0  0  0  0  0  0  0  0  0  0  0  0
   -0.2022   -1.4073    0.0000 C   0  0  0  0  0  0  0  0  0  0  0  0
   -0.8189   -1.1506    0.0000 C   0  0  0  0  0  0  0  0  0  0  0  0
   -1.5720   -1.7446    0.0000 N   0  0  0  0  0  0  0  0  0  0  0  0
   -2.1015   -0.9448    0.0000 C   0  0  0  0  0  0  0  0  0  0  0  0
   -3.6936    1.4317    0.0000 O   0  0  0  0  0  0  0  0  0  0  0  0
   -3.4560    2.9128    0.0000 C   0  0  0  0  0  0  0  0  0  0  0  0
   -4.6197    3.8591    0.0000 C   0  0  0  0  0  0  0  0  0  0  0  0
    1.1992   -0.8726    0.0000 C   0  0  0  0  0  0  0  0  0  0  0  0
    2.3630   -1.8190    0.0000 C   0  0  0  0  0  0  0  0  0  0  0  0
    2.7275    0.4520    0.0000 C   0  0  0  0  0  0  0  0  0  0  0  0
    3.0760    2.6242    0.0000 O   0  0  0  0  0  0  0  0  0  0  0  0
  1  2  2  0
  2  3  1  0
  3  4  1  1
  4  5  1  0
  6  5  1  1
  6  7  1  0
  7  8  1  1
  7  9  1  0
 10  9  1  1
 10 11  1  0
 11 12  1  1
 11 13  1  0
 13 14  1  0
 14 15  1  0
 16 15  1  6
 16 17  1  0
 17 18  2  0
 18 19  1  0
 19 20  1  1
 20 21  1  0
 21 22  1  0
 16 23  1  0
 23 24  1  1
  6 25  1  0
 25 26  1  1
 25  2  1  0
 24  3  1  0
 23  6  1  0
 16 10  1  0
 19 11  1  0
M  END
