
     RDKit          2D

 26 28  0  0  0  0  0  0  0  0999 V2000
   -1.5485    2.9746    0.0000 C   0  0  0  0  0  0  0  0  0  0  0  0
   -0.2539    2.2169    0.0000 C   0  0  0  0  0  0  0  0  0  0  0  0
    1.0496    2.9592    0.0000 C   0  0  0  0  0  0  0  0  0  0  0  0
    2.3441    2.2015    0.0000 C   0  0  0  0  0  0  0  0  0  0  0  0
    2.3352    0.7015    0.0000 C   0  0  0  0  0  0  0  0  0  0  0  0
    1.0318   -0.0408    0.0000 C   0  0  0  0  0  0  0  0  0  0  0  0
   -0.2717   -0.7830    0.0000 C   0  0  0  0  0  0  0  0  0  0  0  0
    1.0229   -1.5407    0.0000 C   0  0  0  0  0  0  0  0  0  0  0  0
    2.3174   -2.2984    0.0000 C   0  0  0  0  0  0  0  0  0  0  0  0
    3.6209   -1.5561    0.0000 C   0  0  0  0  0  0  0  0  0  0  0  0
    3.6298   -0.0562    0.0000 C   0  0  0  0  0  0  0  0  0  0  0  0
    4.1512    1.3503    0.0000 C   0  0  0  0  0  0  0  0  0  0  0  0
    5.1054   -0.3254    0.0000 C   0  0  0  0  0  0  0  0  0  0  0  0
    6.0764    0.8179    0.0000 O   0  0  0  0  0  0  0  0  0  0  0  0
    5.6101   -1.7380    0.0000 O   0  0  0  0  0  0  0  0  0  0  0  0
    7.0857   -2.0072    0.0000 C   0  0  0  0  0  0  0  0  0  0  0  0
   -0.2628    0.7169    0.0000 C   0  0  0  0  0  0  0  0  0  0  0  0
   -1.5663   -0.0253    0.0000 C   0  0  0  0  0  0  0  0  0  0  0  0
   -2.8608    0.7323    0.0000 C   0  0  0  0  0  0  0  0  0  0  0  0
   -4.1643   -0.0099    0.0000 C   0  0  0  0  0  0  0  0  0  0  0  0
   -4.3299   -1.5008    0.0000 C   0  0  0  0  0  0  0  0  0  0  0  0
   -5.7990   -1.8039    0.0000 C   0  0  0  0  0  0  0  0  0  0  0  0
   -6.4172   -3.1706    0.0000 O   0  0  0  0  0  0  0  0  0  0  0  0
   -6.5413   -0.5005    0.0000 O   0  0  0  0  0  0  0  0  0  0  0  0
   -5.5310    0.6083    0.0000 C   0  0  0  0  0  0  0  0  0  0  0  0
   -5.8341    2.0773    0.0000 O   0  0  0  0  0  0  0  0  0  0  0  0
  1  2  2  0
  2  3  1  0
  3  4  1  0
  5  4  1  1
  5  6  1  0
  6  7  1  6
  6  8  1  0
  8  9  1  0
  9 10  1  0
 10 11  1  0
 11 12  1  6
 11 13  1  0
 13 14  2  0
 13 15  1  0
 15 16  1  0
  6 17  1  0
 17 18  1  1
 18 19  1  0
 19 20  1  0
 20 21  2  0
 21 22  1  0
 22 23  1  6
 22 24  1  0
 24 25  1  0
 25 26  2  0
 17  2  1  0
 25 20  1  0
 11  5  1  0
M  END
