
     RDKit          2D

 26 26  0  0  0  0  0  0  0  0999 V2000
  -13.6675   -1.1888    0.0000 C   0  0  0  0  0  0  0  0  0  0  0  0
  -12.2106   -0.8318    0.0000 C   0  0  0  0  0  0  0  0  0  0  0  0
  -10.7537   -0.4748    0.0000 C   0  0  0  0  0  0  0  0  0  0  0  0
   -9.2968   -0.1178    0.0000 C   0  0  0  0  0  0  0  0  0  0  0  0
   -7.8400    0.2393    0.0000 C   0  0  0  0  0  0  0  0  0  0  0  0
   -6.3831    0.5963    0.0000 C   0  0  0  0  0  0  0  0  0  0  0  0
   -4.9262    0.9533    0.0000 C   0  0  0  0  0  0  0  0  0  0  0  0
   -3.4693    1.3104    0.0000 C   0  0  0  0  0  0  0  0  0  0  0  0
   -2.4316    0.2272    0.0000 C   0  0  0  0  0  0  0  0  0  0  0  0
   -0.9748    0.5842    0.0000 C   0  0  0  0  0  0  0  0  0  0  0  0
    0.0629   -0.4990    0.0000 C   0  0  0  0  0  0  0  0  0  0  0  0
    1.5198   -0.1420    0.0000 C   0  0  0  0  0  0  0  0  0  0  0  0
    1.9390    1.2982    0.0000 C   0  0  0  0  0  0  0  0  0  0  0  0
    0.9014    2.3814    0.0000 O   0  0  0  0  0  0  0  0  0  0  0  0
    2.5574   -1.2252    0.0000 O   0  0  0  0  0  0  0  0  0  0  0  0
    4.0143   -0.8681    0.0000 C   0  0  0  0  0  0  0  0  0  0  0  0
    4.4336    0.5721    0.0000 O   0  0  0  0  0  0  0  0  0  0  0  0
    5.8905    0.9291    0.0000 C   0  0  0  0  0  0  0  0  0  0  0  0
    6.3097    2.3693    0.0000 C   0  0  0  0  0  0  0  0  0  0  0  0
    5.2721    3.4525    0.0000 O   0  0  0  0  0  0  0  0  0  0  0  0
    6.9281   -0.1541    0.0000 C   0  0  0  0  0  0  0  0  0  0  0  0
    8.3850    0.2029    0.0000 O   0  0  0  0  0  0  0  0  0  0  0  0
    6.5088   -1.5943    0.0000 C   0  0  0  0  0  0  0  0  0  0  0  0
    7.5465   -2.6775    0.0000 O   0  0  0  0  0  0  0  0  0  0  0  0
    5.0519   -1.9513    0.0000 C   0  0  0  0  0  0  0  0  0  0  0  0
    4.6327   -3.3916    0.0000 O   0  0  0  0  0  0  0  0  0  0  0  0
  1  2  1  0
  2  3  3  0
  3  4  1  0
  4  5  3  0
  5  6  1  0
  6  7  3  0
  7  8  1  0
  8  9  2  0
  9 10  1  0
 10 11  1  0
 12 11  1  6
 12 13  1  0
 13 14  1  0
 12 15  1  0
 16 15  1  6
 16 17  1  0
 17 18  1  0
 18 19  1  6
 19 20  1  0
 18 21  1  0
 21 22  1  1
 21 23  1  0
 23 24  1  6
 23 25  1  0
 25 26  1  1
 25 16  1  0
M  END
