
     RDKit          2D

 26 29  0  0  0  0  0  0  0  0999 V2000
   -1.5880    5.1120    0.0000 C   0  0  0  0  0  0  0  0  0  0  0  0
   -1.9840    3.6652    0.0000 C   0  0  0  0  0  0  0  0  0  0  0  0
   -3.4350    3.2847    0.0000 O   0  0  0  0  0  0  0  0  0  0  0  0
   -0.9291    2.5988    0.0000 O   0  0  0  0  0  0  0  0  0  0  0  0
   -1.3251    1.1520    0.0000 C   0  0  0  0  0  0  0  0  0  0  0  0
   -2.7760    0.7716    0.0000 C   0  0  0  0  0  0  0  0  0  0  0  0
   -3.1720   -0.6752    0.0000 C   0  0  0  0  0  0  0  0  0  0  0  0
   -2.1170   -1.7415    0.0000 C   0  0  0  0  0  0  0  0  0  0  0  0
   -0.6661   -1.3611    0.0000 C   0  0  0  0  0  0  0  0  0  0  0  0
   -1.4898   -2.6147    0.0000 C   0  0  0  0  0  0  0  0  0  0  0  0
   -2.9366   -2.2187    0.0000 C   0  0  0  0  0  0  0  0  0  0  0  0
   -4.1073   -3.1564    0.0000 C   0  0  0  0  0  0  0  0  0  0  0  0
   -5.5048   -2.6114    0.0000 O   0  0  0  0  0  0  0  0  0  0  0  0
    0.3889   -2.4274    0.0000 C   0  0  0  0  0  0  0  0  0  0  0  0
    1.8398   -2.0469    0.0000 C   0  0  0  0  0  0  0  0  0  0  0  0
    2.2358   -0.6002    0.0000 C   0  0  0  0  0  0  0  0  0  0  0  0
    3.6868   -0.2197    0.0000 C   0  0  0  0  0  0  0  0  0  0  0  0
    5.1803   -0.3585    0.0000 C   0  0  0  0  0  0  0  0  0  0  0  0
    3.8095   -1.7147    0.0000 C   0  0  0  0  0  0  0  0  0  0  0  0
    5.1655   -2.3559    0.0000 O   0  0  0  0  0  0  0  0  0  0  0  0
    4.0828    1.2271    0.0000 C   0  0  0  0  0  0  0  0  0  0  0  0
    3.0278    2.2934    0.0000 C   0  0  0  0  0  0  0  0  0  0  0  0
    1.5768    1.9130    0.0000 C   0  0  0  0  0  0  0  0  0  0  0  0
    1.1809    0.4662    0.0000 C   0  0  0  0  0  0  0  0  0  0  0  0
    0.1259    1.5325    0.0000 C   0  0  0  0  0  0  0  0  0  0  0  0
   -0.2701    0.0857    0.0000 C   0  0  0  0  0  0  0  0  0  0  0  0
  1  2  1  0
  2  3  2  0
  2  4  1  0
  4  5  1  0
  5  6  1  0
  6  7  1  0
  7  8  1  0
  8  9  1  0
  9 10  1  0
 10 11  2  0
 11 12  1  0
 12 13  2  0
  9 14  1  0
 14 15  1  0
 15 16  1  0
 16 17  1  0
 17 18  1  0
 17 19  1  0
 19 20  1  0
 17 21  1  0
 21 22  1  0
 22 23  1  0
 23 24  1  0
 24 25  1  0
 24 26  1  0
 26  5  1  0
 11  7  1  0
 24 16  1  0
 26  9  1  0
M  END
