
     RDKit          2D

 26 30  0  0  0  0  0  0  0  0999 V2000
   -6.0745    0.9950    0.0000 C   0  0  0  0  0  0  0  0  0  0  0  0
   -5.4164   -0.3529    0.0000 O   0  0  0  0  0  0  0  0  0  0  0  0
   -3.9200   -0.4569    0.0000 C   0  0  0  0  0  0  0  0  0  0  0  0
   -3.2618   -1.8048    0.0000 C   0  0  0  0  0  0  0  0  0  0  0  0
   -1.7654   -1.9087    0.0000 C   0  0  0  0  0  0  0  0  0  0  0  0
   -1.1072   -3.2566    0.0000 O   0  0  0  0  0  0  0  0  0  0  0  0
   -0.9272   -0.6648    0.0000 C   0  0  0  0  0  0  0  0  0  0  0  0
   -1.5854    0.6831    0.0000 C   0  0  0  0  0  0  0  0  0  0  0  0
   -3.0818    0.7871    0.0000 C   0  0  0  0  0  0  0  0  0  0  0  0
   -0.7471    1.9271    0.0000 C   0  0  0  0  0  0  0  0  0  0  0  0
   -1.4053    3.2750    0.0000 O   0  0  0  0  0  0  0  0  0  0  0  0
    0.7492    1.8231    0.0000 C   0  0  0  0  0  0  0  0  0  0  0  0
    1.4074    0.4753    0.0000 C   0  0  0  0  0  0  0  0  0  0  0  0
    2.9038    0.3713    0.0000 C   0  0  0  0  0  0  0  0  0  0  0  0
    3.5620   -0.9766    0.0000 C   0  0  0  0  0  0  0  0  0  0  0  0
    2.7238   -2.2205    0.0000 C   0  0  0  0  0  0  0  0  0  0  0  0
    3.0874   -3.6758    0.0000 O   0  0  0  0  0  0  0  0  0  0  0  0
    1.8157   -4.4713    0.0000 C   0  0  0  0  0  0  0  0  0  0  0  0
    0.6661   -3.5076    0.0000 O   0  0  0  0  0  0  0  0  0  0  0  0
    1.2274   -2.1166    0.0000 C   0  0  0  0  0  0  0  0  0  0  0  0
    0.5692   -0.7687    0.0000 C   0  0  0  0  0  0  0  0  0  0  0  0
    3.7420    1.6153    0.0000 C   0  0  0  0  0  0  0  0  0  0  0  0
    3.0839    2.9631    0.0000 C   0  0  0  0  0  0  0  0  0  0  0  0
    1.5875    3.0671    0.0000 N   0  0  0  0  0  0  0  0  0  0  0  0
    0.2169    3.6766    0.0000 C   0  0  0  0  0  0  0  0  0  0  0  0
    1.9497    4.5227    0.0000 O   0  0  0  0  0  0  0  0  0  0  0  0
  1  2  1  0
  2  3  1  0
  3  4  2  0
  4  5  1  0
  5  6  1  0
  5  7  2  0
  7  8  1  0
  8  9  2  0
  8 10  1  0
 10 11  1  6
 10 12  1  0
 12 13  1  1
 13 14  2  0
 14 15  1  0
 15 16  2  0
 16 17  1  0
 17 18  1  0
 18 19  1  0
 19 20  1  0
 20 21  2  0
 14 22  1  0
 22 23  1  0
 23 24  1  0
 24 25  1  1
 24 26  1  0
  9  3  1  0
 24 12  1  0
 21  7  1  0
 21 13  1  0
 20 16  1  0
M  CHG  2  24   1  26  -1
M  END
