
     RDKit          2D

 26 25  0  0  0  0  0  0  0  0999 V2000
  -15.9409   -0.3165    0.0000 C   0  0  0  0  0  0  0  0  0  0  0  0
  -14.6365    0.4240    0.0000 C   0  0  0  0  0  0  0  0  0  0  0  0
  -13.3429   -0.3354    0.0000 C   0  0  0  0  0  0  0  0  0  0  0  0
  -12.0385    0.4051    0.0000 C   0  0  0  0  0  0  0  0  0  0  0  0
  -10.7449   -0.3544    0.0000 C   0  0  0  0  0  0  0  0  0  0  0  0
   -9.4404    0.3861    0.0000 C   0  0  0  0  0  0  0  0  0  0  0  0
   -8.1469   -0.3733    0.0000 C   0  0  0  0  0  0  0  0  0  0  0  0
   -6.8424    0.3672    0.0000 C   0  0  0  0  0  0  0  0  0  0  0  0
   -5.5489   -0.3922    0.0000 C   0  0  0  0  0  0  0  0  0  0  0  0
   -4.2444    0.3483    0.0000 C   0  0  0  0  0  0  0  0  0  0  0  0
   -2.9509   -0.4112    0.0000 C   0  0  0  0  0  0  0  0  0  0  0  0
   -1.6464    0.3293    0.0000 C   0  0  0  0  0  0  0  0  0  0  0  0
   -0.3529   -0.4301    0.0000 C   0  0  0  0  0  0  0  0  0  0  0  0
    0.9516    0.3104    0.0000 C   0  0  0  0  0  0  0  0  0  0  0  0
    2.2451   -0.4491    0.0000 C   0  0  0  0  0  0  0  0  0  0  0  0
    3.5496    0.2914    0.0000 C   0  0  0  0  0  0  0  0  0  0  0  0
    4.8431   -0.4680    0.0000 C   0  0  0  0  0  0  0  0  0  0  0  0
    6.1476    0.2725    0.0000 C   0  0  0  0  0  0  0  0  0  0  0  0
    7.4411   -0.4870    0.0000 C   0  0  0  0  0  0  0  0  0  0  0  0
    8.7456    0.2535    0.0000 C   0  0  0  0  0  0  0  0  0  0  0  0
    8.7565    1.7535    0.0000 O   0  0  0  0  0  0  0  0  0  0  0  0
   10.0391   -0.5059    0.0000 N   0  0  0  0  0  0  0  0  0  0  0  0
   11.3436    0.2346    0.0000 O   0  0  0  0  0  0  0  0  0  0  0  0
   12.6371   -0.5248    0.0000 C   0  0  0  0  0  0  0  0  0  0  0  0
   13.9416    0.2157    0.0000 C   0  0  0  0  0  0  0  0  0  0  0  0
   15.2352   -0.5438    0.0000 O   0  0  0  0  0  0  0  0  0  0  0  0
  1  2  1  0
  2  3  1  0
  3  4  1  0
  4  5  1  0
  5  6  1  0
  6  7  2  3
  7  8  1  0
  8  9  1  0
  9 10  2  3
 10 11  1  0
 11 12  1  0
 12 13  2  3
 13 14  1  0
 14 15  1  0
 15 16  2  3
 16 17  1  0
 17 18  1  0
 18 19  1  0
 19 20  1  0
 20 21  2  0
 20 22  1  0
 22 23  1  0
 23 24  1  0
 24 25  1  0
 25 26  1  0
M  END
