
     RDKit          2D

 26 30  0  0  0  0  0  0  0  0999 V2000
   -6.5829    1.2028    0.0000 C   0  0  0  0  0  0  0  0  0  0  0  0
   -3.8565   -0.5213    0.0000 C   0  0  0  0  0  0  0  0  0  0  0  0
   -4.3138   -0.2102    0.0000 C   0  0  0  0  0  0  0  0  0  0  0  0
   -4.4423   -1.7047    0.0000 C   0  0  0  0  0  0  0  0  0  0  0  0
   -3.0606   -2.2887    0.0000 C   0  0  0  0  0  0  0  0  0  0  0  0
   -2.0783   -1.1551    0.0000 C   0  0  0  0  0  0  0  0  0  0  0  0
   -0.5785   -1.1267    0.0000 C   0  0  0  0  0  0  0  0  0  0  0  0
    0.1960   -2.4112    0.0000 C   0  0  0  0  0  0  0  0  0  0  0  0
    1.6957   -2.3827    0.0000 C   0  0  0  0  0  0  0  0  0  0  0  0
    2.4209   -1.0697    0.0000 C   0  0  0  0  0  0  0  0  0  0  0  0
    3.9206   -1.0412    0.0000 C   0  0  0  0  0  0  0  0  0  0  0  0
    4.6458    0.2718    0.0000 C   0  0  0  0  0  0  0  0  0  0  0  0
    6.1456    0.3003    0.0000 N   0  0  0  0  0  0  0  0  0  0  0  0
    6.9201   -0.9843    0.0000 C   0  0  0  0  0  0  0  0  0  0  0  0
    6.8708    1.6133    0.0000 C   0  0  0  0  0  0  0  0  0  0  0  0
    3.8713    1.5564    0.0000 C   0  0  0  0  0  0  0  0  0  0  0  0
    2.3716    1.5279    0.0000 C   0  0  0  0  0  0  0  0  0  0  0  0
    1.6464    0.2149    0.0000 C   0  0  0  0  0  0  0  0  0  0  0  0
    0.8719    1.4994    0.0000 C   0  0  0  0  0  0  0  0  0  0  0  0
    0.1467    0.1864    0.0000 C   0  0  0  0  0  0  0  0  0  0  0  0
   -0.6279    1.4709    0.0000 C   0  0  0  0  0  0  0  0  0  0  0  0
   -2.1276    1.4425    0.0000 C   0  0  0  0  0  0  0  0  0  0  0  0
   -2.8528    0.1294    0.0000 C   0  0  0  0  0  0  0  0  0  0  0  0
   -3.1260   -0.3514    0.0000 C   0  0  0  0  0  0  0  0  0  0  0  0
   -3.6305    0.1624    0.0000 N   0  0  0  0  0  0  0  0  0  0  0  0
   -4.4457    3.6689    0.0000 C   0  0  0  0  0  0  0  0  0  0  0  0
  2  1  1  6
  2  3  1  0
  3  4  1  1
  4  5  1  0
  6  5  1  6
  6  7  1  0
  7  8  1  6
  8  9  1  0
  9 10  2  0
 10 11  1  0
 11 12  1  0
 12 13  1  6
 13 14  1  0
 13 15  1  0
 12 16  1  0
 16 17  1  0
 17 18  1  0
 18 19  1  6
 18 20  1  0
 20 21  1  1
 21 22  1  0
 23 22  1  6
 23 24  1  0
 24 25  1  0
 25 26  1  0
 25  2  1  0
 23  3  1  0
 23  6  1  0
 20  7  1  0
 18 10  1  0
M  END
