
     RDKit          2D

 26 30  0  0  0  0  0  0  0  0999 V2000
    6.6840   -0.5569    0.0000 C   0  0  0  0  0  0  0  0  0  0  0  0
    6.3937    0.9147    0.0000 C   0  0  0  0  0  0  0  0  0  0  0  0
    4.9740    1.3991    0.0000 C   0  0  0  0  0  0  0  0  0  0  0  0
    4.6837    2.8708    0.0000 C   0  0  0  0  0  0  0  0  0  0  0  0
    3.8447    0.4119    0.0000 C   0  0  0  0  0  0  0  0  0  0  0  0
    4.1350   -1.0598    0.0000 O   0  0  0  0  0  0  0  0  0  0  0  0
    2.4251    0.8963    0.0000 O   0  0  0  0  0  0  0  0  0  0  0  0
    1.2958   -0.0910    0.0000 C   0  0  0  0  0  0  0  0  0  0  0  0
    1.5861   -1.5626    0.0000 C   0  0  0  0  0  0  0  0  0  0  0  0
    1.8764   -3.0342    0.0000 O   0  0  0  0  0  0  0  0  0  0  0  0
    0.4568   -2.5498    0.0000 C   0  0  0  0  0  0  0  0  0  0  0  0
   -0.9629   -2.0655    0.0000 C   0  0  0  0  0  0  0  0  0  0  0  0
   -1.4472   -3.4851    0.0000 C   0  0  0  0  0  0  0  0  0  0  0  0
   -2.4345   -2.3558    0.0000 O   0  0  0  0  0  0  0  0  0  0  0  0
   -1.2532   -0.5938    0.0000 C   0  0  0  0  0  0  0  0  0  0  0  0
   -2.6728   -0.1094    0.0000 C   0  0  0  0  0  0  0  0  0  0  0  0
   -3.9827   -0.8403    0.0000 O   0  0  0  0  0  0  0  0  0  0  0  0
   -5.0826    0.1796    0.0000 C   0  0  0  0  0  0  0  0  0  0  0  0
   -6.5542   -0.1107    0.0000 O   0  0  0  0  0  0  0  0  0  0  0  0
   -4.4525    1.5409    0.0000 C   0  0  0  0  0  0  0  0  0  0  0  0
   -5.1833    2.8508    0.0000 C   0  0  0  0  0  0  0  0  0  0  0  0
   -2.9631    1.3622    0.0000 C   0  0  0  0  0  0  0  0  0  0  0  0
   -1.8338    2.3495    0.0000 C   0  0  0  0  0  0  0  0  0  0  0  0
   -0.4142    1.8651    0.0000 C   0  0  0  0  0  0  0  0  0  0  0  0
   -0.1239    0.3934    0.0000 C   0  0  0  0  0  0  0  0  0  0  0  0
    1.0055    1.3807    0.0000 C   0  0  0  0  0  0  0  0  0  0  0  0
  1  2  1  0
  2  3  2  0
  3  4  1  0
  3  5  1  0
  5  6  2  0
  5  7  1  0
  8  7  1  6
  8  9  1  0
  9 10  1  6
 11 10  1  1
 11 12  1  0
 12 13  1  1
 13 14  1  0
 12 15  1  0
 15 16  1  1
 16 17  1  1
 17 18  1  0
 18 19  2  0
 18 20  1  0
 20 21  1  6
 20 22  1  0
 22 23  1  6
 23 24  1  0
 24 25  1  0
 25 26  1  1
 25  8  1  0
 11  9  1  0
 14 12  1  0
 25 15  1  0
 22 16  1  0
M  END
