
     RDKit          2D

 26 28  0  0  0  0  0  0  0  0999 V2000
   -7.9449   -2.2320    0.0000 C   0  0  0  0  0  0  0  0  0  0  0  0
   -6.5097   -2.6684    0.0000 C   0  0  0  0  0  0  0  0  0  0  0  0
   -5.4143   -1.6437    0.0000 C   0  0  0  0  0  0  0  0  0  0  0  0
   -3.9791   -2.0801    0.0000 C   0  0  0  0  0  0  0  0  0  0  0  0
   -2.8837   -1.0554    0.0000 C   0  0  0  0  0  0  0  0  0  0  0  0
   -3.2233    0.4057    0.0000 O   0  0  0  0  0  0  0  0  0  0  0  0
   -1.4485   -1.4918    0.0000 N   0  0  0  0  0  0  0  0  0  0  0  0
   -0.3531   -0.4671    0.0000 C   0  0  0  0  0  0  0  0  0  0  0  0
   -0.6927    0.9940    0.0000 C   0  0  0  0  0  0  0  0  0  0  0  0
    0.4027    2.0186    0.0000 C   0  0  0  0  0  0  0  0  0  0  0  0
    0.0631    3.4797    0.0000 C   0  0  0  0  0  0  0  0  0  0  0  0
   -1.3720    3.9160    0.0000 C   0  0  0  0  0  0  0  0  0  0  0  0
   -1.7117    5.3771    0.0000 Cl  0  0  0  0  0  0  0  0  0  0  0  0
   -2.4675    2.8914    0.0000 C   0  0  0  0  0  0  0  0  0  0  0  0
   -2.1279    1.4303    0.0000 C   0  0  0  0  0  0  0  0  0  0  0  0
    1.0821   -0.9035    0.0000 C   0  0  0  0  0  0  0  0  0  0  0  0
    1.4217   -2.3645    0.0000 C   0  0  0  0  0  0  0  0  0  0  0  0
    2.8568   -2.8009    0.0000 C   0  0  0  0  0  0  0  0  0  0  0  0
    3.9523   -1.7762    0.0000 C   0  0  0  0  0  0  0  0  0  0  0  0
    5.3874   -2.2126    0.0000 C   0  0  0  0  0  0  0  0  0  0  0  0
    6.4829   -1.1879    0.0000 C   0  0  0  0  0  0  0  0  0  0  0  0
    6.1432    0.2732    0.0000 C   0  0  0  0  0  0  0  0  0  0  0  0
    4.7081    0.7095    0.0000 N   0  0  0  0  0  0  0  0  0  0  0  0
    3.6126   -0.3151    0.0000 C   0  0  0  0  0  0  0  0  0  0  0  0
    2.1775    0.1212    0.0000 C   0  0  0  0  0  0  0  0  0  0  0  0
    1.8379    1.5823    0.0000 O   0  0  0  0  0  0  0  0  0  0  0  0
  1  2  1  0
  2  3  1  0
  3  4  1  0
  4  5  1  0
  5  6  2  0
  5  7  1  0
  8  7  1  1
  8  9  1  0
  9 10  2  0
 10 11  1  0
 11 12  2  0
 12 13  1  0
 12 14  1  0
 14 15  2  0
  8 16  1  0
 16 17  2  0
 17 18  1  0
 18 19  2  0
 19 20  1  0
 20 21  2  0
 21 22  1  0
 22 23  2  0
 23 24  1  0
 24 25  2  0
 25 26  1  0
 15  9  1  0
 25 16  1  0
 24 19  1  0
M  END
