
     RDKit          2D

 26 29  0  0  0  0  0  0  0  0999 V2000
   -3.4717   -3.6313    0.0000 C   0  0  0  0  0  0  0  0  0  0  0  0
   -4.4088   -2.4601    0.0000 C   0  0  0  0  0  0  0  0  0  0  0  0
   -5.8917   -2.6861    0.0000 C   0  0  0  0  0  0  0  0  0  0  0  0
   -6.8288   -1.5148    0.0000 C   0  0  0  0  0  0  0  0  0  0  0  0
   -6.2831   -0.1176    0.0000 C   0  0  0  0  0  0  0  0  0  0  0  0
   -4.8002    0.1083    0.0000 C   0  0  0  0  0  0  0  0  0  0  0  0
   -5.7374    1.2796    0.0000 C   0  0  0  0  0  0  0  0  0  0  0  0
   -4.2545    1.5055    0.0000 C   0  0  0  0  0  0  0  0  0  0  0  0
   -2.7716    1.7315    0.0000 C   0  0  0  0  0  0  0  0  0  0  0  0
   -1.9473    2.9847    0.0000 O   0  0  0  0  0  0  0  0  0  0  0  0
   -0.5007    2.5880    0.0000 C   0  0  0  0  0  0  0  0  0  0  0  0
    0.6705    3.5251    0.0000 O   0  0  0  0  0  0  0  0  0  0  0  0
   -0.4310    1.0896    0.0000 C   0  0  0  0  0  0  0  0  0  0  0  0
    0.8222    0.2653    0.0000 C   0  0  0  0  0  0  0  0  0  0  0  0
    2.1627    0.9384    0.0000 N   0  0  0  0  0  0  0  0  0  0  0  0
    3.4159    0.1141    0.0000 C   0  0  0  0  0  0  0  0  0  0  0  0
    4.7564    0.7873    0.0000 C   0  0  0  0  0  0  0  0  0  0  0  0
    6.0096   -0.0370    0.0000 N   0  0  0  0  0  0  0  0  0  0  0  0
    5.9223   -1.5345    0.0000 C   0  0  0  0  0  0  0  0  0  0  0  0
    7.1755   -2.3588    0.0000 C   0  0  0  0  0  0  0  0  0  0  0  0
    8.5160   -1.6857    0.0000 O   0  0  0  0  0  0  0  0  0  0  0  0
    8.6033   -0.1882    0.0000 C   0  0  0  0  0  0  0  0  0  0  0  0
    7.3501    0.6361    0.0000 C   0  0  0  0  0  0  0  0  0  0  0  0
   -1.8345    0.5603    0.0000 C   0  0  0  0  0  0  0  0  0  0  0  0
   -2.3802   -0.8369    0.0000 C   0  0  0  0  0  0  0  0  0  0  0  0
   -3.8631   -1.0629    0.0000 C   0  0  0  0  0  0  0  0  0  0  0  0
  2  1  1  1
  2  3  1  0
  3  4  1  0
  4  5  1  0
  5  6  1  0
  6  7  1  1
  6  8  1  0
  9  8  1  1
  9 10  1  0
 10 11  1  0
 11 12  2  0
 11 13  1  0
 13 14  1  1
 14 15  1  0
 15 16  1  0
 16 17  1  0
 17 18  1  0
 18 19  1  0
 19 20  1  0
 20 21  1  0
 21 22  1  0
 22 23  1  0
 13 24  1  0
 24 25  1  1
 25 26  2  0
 26  2  1  0
 26  6  1  0
 24  9  1  0
 23 18  1  0
M  END
