
     RDKit          2D

 26 28  0  0  0  0  0  0  0  0999 V2000
   -3.4926    3.5949    0.0000 C   0  0  0  0  0  0  0  0  0  0  0  0
   -3.6494    2.1031    0.0000 O   0  0  0  0  0  0  0  0  0  0  0  0
   -2.4358    1.2215    0.0000 C   0  0  0  0  0  0  0  0  0  0  0  0
   -1.0655    1.8316    0.0000 C   0  0  0  0  0  0  0  0  0  0  0  0
    0.1480    0.9500    0.0000 C   0  0  0  0  0  0  0  0  0  0  0  0
   -0.0087   -0.5418    0.0000 C   0  0  0  0  0  0  0  0  0  0  0  0
    1.2048   -1.4235    0.0000 C   0  0  0  0  0  0  0  0  0  0  0  0
    1.0480   -2.9153    0.0000 O   0  0  0  0  0  0  0  0  0  0  0  0
    2.5751   -0.8133    0.0000 C   0  0  0  0  0  0  0  0  0  0  0  0
    2.7319    0.6785    0.0000 C   0  0  0  0  0  0  0  0  0  0  0  0
    3.3894    2.0267    0.0000 C   0  0  0  0  0  0  0  0  0  0  0  0
    4.1738    0.2650    0.0000 C   0  0  0  0  0  0  0  0  0  0  0  0
    4.5367   -1.1904    0.0000 C   0  0  0  0  0  0  0  0  0  0  0  0
    5.9786   -1.6038    0.0000 C   0  0  0  0  0  0  0  0  0  0  0  0
    7.0576   -0.5618    0.0000 C   0  0  0  0  0  0  0  0  0  0  0  0
    6.6946    0.8936    0.0000 C   0  0  0  0  0  0  0  0  0  0  0  0
    5.2527    1.3071    0.0000 C   0  0  0  0  0  0  0  0  0  0  0  0
    1.5183    1.5601    0.0000 O   0  0  0  0  0  0  0  0  0  0  0  0
   -1.3790   -1.1520    0.0000 C   0  0  0  0  0  0  0  0  0  0  0  0
   -1.5358   -2.6437    0.0000 O   0  0  0  0  0  0  0  0  0  0  0  0
   -2.5926   -0.2703    0.0000 C   0  0  0  0  0  0  0  0  0  0  0  0
   -3.9629   -0.8804    0.0000 C   0  0  0  0  0  0  0  0  0  0  0  0
   -5.1764    0.0012    0.0000 C   0  0  0  0  0  0  0  0  0  0  0  0
   -6.5468   -0.6089    0.0000 C   0  0  0  0  0  0  0  0  0  0  0  0
   -7.7603    0.2727    0.0000 C   0  0  0  0  0  0  0  0  0  0  0  0
   -6.7035   -2.1007    0.0000 C   0  0  0  0  0  0  0  0  0  0  0  0
  1  2  1  0
  2  3  1  0
  3  4  2  0
  4  5  1  0
  5  6  2  0
  6  7  1  0
  7  8  2  0
  7  9  1  0
  9 10  1  0
 10 11  1  1
 10 12  1  0
 12 13  2  0
 13 14  1  0
 14 15  2  0
 15 16  1  0
 16 17  2  0
 10 18  1  0
  6 19  1  0
 19 20  1  0
 19 21  2  0
 21 22  1  0
 22 23  1  0
 23 24  2  0
 24 25  1  0
 24 26  1  0
 21  3  1  0
 18  5  1  0
 17 12  1  0
M  END
