
     RDKit          2D

 26 25  0  0  0  0  0  0  0  0999 V2000
   -7.8405    4.1837    0.0000 C   0  0  0  0  0  0  0  0  0  0  0  0
   -7.8241    2.6838    0.0000 C   0  0  0  0  0  0  0  0  0  0  0  0
   -9.1148    1.9196    0.0000 C   0  0  0  0  0  0  0  0  0  0  0  0
   -6.5169    1.9481    0.0000 C   0  0  0  0  0  0  0  0  0  0  0  0
   -6.5005    0.4481    0.0000 C   0  0  0  0  0  0  0  0  0  0  0  0
   -5.1933   -0.2876    0.0000 C   0  0  0  0  0  0  0  0  0  0  0  0
   -3.9026    0.4766    0.0000 O   0  0  0  0  0  0  0  0  0  0  0  0
   -5.1769   -1.7875    0.0000 C   0  0  0  0  0  0  0  0  0  0  0  0
   -6.4677   -2.5517    0.0000 C   0  0  0  0  0  0  0  0  0  0  0  0
   -3.8697   -2.5233    0.0000 C   0  0  0  0  0  0  0  0  0  0  0  0
   -2.5790   -1.7591    0.0000 C   0  0  0  0  0  0  0  0  0  0  0  0
   -1.2718   -2.4948    0.0000 C   0  0  0  0  0  0  0  0  0  0  0  0
    0.0189   -1.7307    0.0000 C   0  0  0  0  0  0  0  0  0  0  0  0
    0.0025   -0.2308    0.0000 C   0  0  0  0  0  0  0  0  0  0  0  0
    1.3261   -2.4664    0.0000 C   0  0  0  0  0  0  0  0  0  0  0  0
    2.6169   -1.7022    0.0000 C   0  0  0  0  0  0  0  0  0  0  0  0
    3.9240   -2.4380    0.0000 C   0  0  0  0  0  0  0  0  0  0  0  0
    5.2148   -1.6738    0.0000 C   0  0  0  0  0  0  0  0  0  0  0  0
    6.5219   -2.4096    0.0000 C   0  0  0  0  0  0  0  0  0  0  0  0
    5.1984   -0.1739    0.0000 C   0  0  0  0  0  0  0  0  0  0  0  0
    6.4891    0.5903    0.0000 C   0  0  0  0  0  0  0  0  0  0  0  0
    7.7963   -0.1455    0.0000 O   0  0  0  0  0  0  0  0  0  0  0  0
    6.4727    2.0902    0.0000 C   0  0  0  0  0  0  0  0  0  0  0  0
    5.1655    2.8259    0.0000 N   0  0  0  0  0  0  0  0  0  0  0  0
    7.7635    2.8543    0.0000 C   0  0  0  0  0  0  0  0  0  0  0  0
    7.7471    4.3542    0.0000 O   0  0  0  0  0  0  0  0  0  0  0  0
  1  2  1  0
  2  3  1  0
  2  4  2  0
  4  5  1  0
  5  6  1  0
  6  7  1  6
  6  8  1  0
  8  9  1  1
  8 10  1  0
 10 11  1  0
 11 12  1  0
 12 13  1  0
 13 14  1  0
 13 15  2  0
 15 16  1  0
 16 17  1  0
 17 18  1  0
 18 19  1  1
 18 20  1  0
 20 21  1  0
 21 22  1  1
 21 23  1  0
 23 24  1  1
 23 25  1  0
 25 26  1  0
M  END
