
     RDKit          2D

 26 29  0  0  0  0  0  0  0  0999 V2000
    7.6658   -2.8820    0.0000 C   0  0  0  0  0  0  0  0  0  0  0  0
    7.3018   -1.4268    0.0000 C   0  0  0  0  0  0  0  0  0  0  0  0
    5.8596   -1.0145    0.0000 C   0  0  0  0  0  0  0  0  0  0  0  0
    5.4956    0.4407    0.0000 N   0  0  0  0  0  0  0  0  0  0  0  0
    6.4589    1.5905    0.0000 N   0  0  0  0  0  0  0  0  0  0  0  0
    5.6630    2.8620    0.0000 C   0  0  0  0  0  0  0  0  0  0  0  0
    4.2079    2.4980    0.0000 C   0  0  0  0  0  0  0  0  0  0  0  0
    4.1044    1.0015    0.0000 C   0  0  0  0  0  0  0  0  0  0  0  0
    2.8329    0.2057    0.0000 C   0  0  0  0  0  0  0  0  0  0  0  0
    2.7294   -1.2907    0.0000 C   0  0  0  0  0  0  0  0  0  0  0  0
    1.2742   -1.6547    0.0000 S   0  0  0  0  0  0  0  0  0  0  0  0
    0.4784   -0.3833    0.0000 C   0  0  0  0  0  0  0  0  0  0  0  0
   -1.0180   -0.2798    0.0000 S   0  0  0  0  0  0  0  0  0  0  0  0
   -0.9145    1.2167    0.0000 O   0  0  0  0  0  0  0  0  0  0  0  0
   -1.1215   -1.7762    0.0000 O   0  0  0  0  0  0  0  0  0  0  0  0
   -2.5145   -0.1763    0.0000 N   0  0  0  0  0  0  0  0  0  0  0  0
   -3.1730    1.1714    0.0000 C   0  0  0  0  0  0  0  0  0  0  0  0
   -4.6695    1.2749    0.0000 C   0  0  0  0  0  0  0  0  0  0  0  0
   -5.5073    0.0307    0.0000 C   0  0  0  0  0  0  0  0  0  0  0  0
   -4.8487   -1.3170    0.0000 C   0  0  0  0  0  0  0  0  0  0  0  0
   -3.3523   -1.4205    0.0000 C   0  0  0  0  0  0  0  0  0  0  0  0
   -6.4706   -1.1191    0.0000 O   0  0  0  0  0  0  0  0  0  0  0  0
   -7.8618   -0.5582    0.0000 C   0  0  0  0  0  0  0  0  0  0  0  0
   -7.7583    0.9382    0.0000 C   0  0  0  0  0  0  0  0  0  0  0  0
   -6.3032    1.3022    0.0000 O   0  0  0  0  0  0  0  0  0  0  0  0
    1.4417    0.7665    0.0000 C   0  0  0  0  0  0  0  0  0  0  0  0
  1  2  1  0
  2  3  1  0
  3  4  1  0
  4  5  1  0
  5  6  2  0
  6  7  1  0
  7  8  2  0
  8  9  1  0
  9 10  2  0
 10 11  1  0
 11 12  1  0
 12 13  1  0
 13 14  2  0
 13 15  2  0
 13 16  1  0
 16 17  1  0
 17 18  1  0
 18 19  1  0
 19 20  1  0
 20 21  1  0
 19 22  1  0
 22 23  1  0
 23 24  1  0
 24 25  1  0
 12 26  2  0
  8  4  1  0
 26  9  1  0
 21 16  1  0
 25 19  1  0
M  END
