
     RDKit          2D

 26 26  0  0  0  0  0  0  0  0999 V2000
    4.3020   -3.5896    0.0000 C   0  0  0  0  0  0  0  0  0  0  0  0
    4.9243   -2.2248    0.0000 C   0  0  0  0  0  0  0  0  0  0  0  0
    4.0534   -1.0035    0.0000 C   0  0  0  0  0  0  0  0  0  0  0  0
    5.4073   -0.3579    0.0000 C   0  0  0  0  0  0  0  0  0  0  0  0
    3.0019   -2.0732    0.0000 C   0  0  0  0  0  0  0  0  0  0  0  0
    1.5497   -1.6974    0.0000 C   0  0  0  0  0  0  0  0  0  0  0  0
    1.1490   -0.2519    0.0000 C   0  0  0  0  0  0  0  0  0  0  0  0
   -0.3031    0.1238    0.0000 C   0  0  0  0  0  0  0  0  0  0  0  0
   -1.3546   -0.9459    0.0000 C   0  0  0  0  0  0  0  0  0  0  0  0
   -2.8068   -0.5701    0.0000 C   0  0  0  0  0  0  0  0  0  0  0  0
   -3.8583   -1.6399    0.0000 C   0  0  0  0  0  0  0  0  0  0  0  0
   -3.4577   -3.0854    0.0000 O   0  0  0  0  0  0  0  0  0  0  0  0
   -5.3105   -1.2641    0.0000 C   0  0  0  0  0  0  0  0  0  0  0  0
   -4.9347    0.1881    0.0000 C   0  0  0  0  0  0  0  0  0  0  0  0
   -5.6863   -2.7163    0.0000 C   0  0  0  0  0  0  0  0  0  0  0  0
   -6.7627   -0.8883    0.0000 O   0  0  0  0  0  0  0  0  0  0  0  0
   -0.7038    1.5693    0.0000 C   0  0  0  0  0  0  0  0  0  0  0  0
   -2.1560    1.9451    0.0000 O   0  0  0  0  0  0  0  0  0  0  0  0
   -2.5566    3.3906    0.0000 C   0  0  0  0  0  0  0  0  0  0  0  0
   -4.0088    3.7664    0.0000 C   0  0  0  0  0  0  0  0  0  0  0  0
   -1.5051    4.4603    0.0000 O   0  0  0  0  0  0  0  0  0  0  0  0
    2.2005    0.8178    0.0000 C   0  0  0  0  0  0  0  0  0  0  0  0
    3.6527    0.4420    0.0000 C   0  0  0  0  0  0  0  0  0  0  0  0
    4.7042    1.5117    0.0000 C   0  0  0  0  0  0  0  0  0  0  0  0
    4.3036    2.9572    0.0000 C   0  0  0  0  0  0  0  0  0  0  0  0
    6.1564    1.1360    0.0000 C   0  0  0  0  0  0  0  0  0  0  0  0
  1  2  2  0
  2  3  1  0
  3  4  1  6
  3  5  1  0
  5  6  1  0
  6  7  1  0
  7  8  1  6
  8  9  2  0
  9 10  1  0
 10 11  1  0
 11 12  1  1
 11 13  1  0
 13 14  1  0
 13 15  1  0
 13 16  1  0
  8 17  1  0
 17 18  1  0
 18 19  1  0
 19 20  1  0
 19 21  2  0
  7 22  1  0
 22 23  1  0
 23 24  1  6
 24 25  2  0
 24 26  1  0
 23  3  1  0
M  END
