
     RDKit          2D

 26 29  0  0  0  0  0  0  0  0999 V2000
   -9.2637    2.8393    0.0000 C   0  0  0  0  0  0  0  0  0  0  0  0
   -8.4748    1.5635    0.0000 O   0  0  0  0  0  0  0  0  0  0  0  0
   -6.9755    1.6088    0.0000 C   0  0  0  0  0  0  0  0  0  0  0  0
   -6.1867    0.3330    0.0000 C   0  0  0  0  0  0  0  0  0  0  0  0
   -6.8971   -0.9881    0.0000 O   0  0  0  0  0  0  0  0  0  0  0  0
   -4.6873    0.3782    0.0000 N   0  0  0  0  0  0  0  0  0  0  0  0
   -3.8985   -0.8976    0.0000 C   0  0  0  0  0  0  0  0  0  0  0  0
   -2.3992   -0.8523    0.0000 C   0  0  0  0  0  0  0  0  0  0  0  0
   -1.6887    0.4688    0.0000 C   0  0  0  0  0  0  0  0  0  0  0  0
   -0.1894    0.5141    0.0000 C   0  0  0  0  0  0  0  0  0  0  0  0
    0.5995   -0.7617    0.0000 C   0  0  0  0  0  0  0  0  0  0  0  0
   -0.1110   -2.0828    0.0000 C   0  0  0  0  0  0  0  0  0  0  0  0
   -1.6103   -2.1281    0.0000 N   0  0  0  0  0  0  0  0  0  0  0  0
   -0.4791   -1.4875    0.0000 C   0  0  0  0  0  0  0  0  0  0  0  0
   -0.1002   -0.7829    0.0000 C   0  0  0  0  0  0  0  0  0  0  0  0
    2.0988   -0.7165    0.0000 C   0  0  0  0  0  0  0  0  0  0  0  0
    2.9434    0.5231    0.0000 C   0  0  0  0  0  0  0  0  0  0  0  0
    4.3834    0.1029    0.0000 C   0  0  0  0  0  0  0  0  0  0  0  0
    5.5697    1.0208    0.0000 C   0  0  0  0  0  0  0  0  0  0  0  0
    5.5245    2.5201    0.0000 C   0  0  0  0  0  0  0  0  0  0  0  0
    6.9364    3.0265    0.0000 C   0  0  0  0  0  0  0  0  0  0  0  0
    7.8543    1.8401    0.0000 C   0  0  0  0  0  0  0  0  0  0  0  0
    7.0097    0.6005    0.0000 C   0  0  0  0  0  0  0  0  0  0  0  0
    4.4286   -1.3965    0.0000 N   0  0  0  0  0  0  0  0  0  0  0  0
    3.0167   -1.9028    0.0000 N   0  0  0  0  0  0  0  0  0  0  0  0
    2.5964   -3.3428    0.0000 C   0  0  0  0  0  0  0  0  0  0  0  0
  1  2  1  0
  2  3  1  0
  3  4  1  0
  4  5  2  0
  4  6  1  0
  6  7  1  0
  8  7  1  1
  8  9  1  0
 10  9  1  6
 10 11  1  0
 11 12  1  0
 12 13  1  0
 13 14  1  0
 14 15  1  0
 15 16  1  1
 16 17  2  0
 17 18  1  0
 18 19  1  0
 19 20  1  0
 20 21  1  0
 21 22  1  0
 22 23  1  0
 18 24  2  0
 24 25  1  0
 25 26  1  0
 13  8  1  0
 25 16  1  0
 15 10  1  0
 23 19  1  0
M  END
