
     RDKit          2D

 26 30  0  0  0  0  0  0  0  0999 V2000
    7.0044    2.9667    0.0000 C   0  0  0  0  0  0  0  0  0  0  0  0
    5.5269    2.7082    0.0000 C   0  0  0  0  0  0  0  0  0  0  0  0
    4.5642    3.8586    0.0000 C   0  0  0  0  0  0  0  0  0  0  0  0
    5.0119    1.2994    0.0000 C   0  0  0  0  0  0  0  0  0  0  0  0
    3.5344    1.0409    0.0000 C   0  0  0  0  0  0  0  0  0  0  0  0
    3.0195   -0.3680    0.0000 C   0  0  0  0  0  0  0  0  0  0  0  0
    3.9821   -1.5183    0.0000 C   0  0  0  0  0  0  0  0  0  0  0  0
    5.4597   -1.2598    0.0000 O   0  0  0  0  0  0  0  0  0  0  0  0
    3.4672   -2.9272    0.0000 C   0  0  0  0  0  0  0  0  0  0  0  0
    1.9897   -3.1857    0.0000 C   0  0  0  0  0  0  0  0  0  0  0  0
    1.0270   -2.0354    0.0000 C   0  0  0  0  0  0  0  0  0  0  0  0
    1.5419   -0.6265    0.0000 C   0  0  0  0  0  0  0  0  0  0  0  0
    0.3611    0.2986    0.0000 O   0  0  0  0  0  0  0  0  0  0  0  0
   -0.8835   -0.5386    0.0000 C   0  0  0  0  0  0  0  0  0  0  0  0
   -2.3385   -0.1738    0.0000 C   0  0  0  0  0  0  0  0  0  0  0  0
   -2.7500    1.2687    0.0000 C   0  0  0  0  0  0  0  0  0  0  0  0
   -4.2050    1.6335    0.0000 C   0  0  0  0  0  0  0  0  0  0  0  0
   -5.2484    0.5559    0.0000 C   0  0  0  0  0  0  0  0  0  0  0  0
   -4.8369   -0.8866    0.0000 C   0  0  0  0  0  0  0  0  0  0  0  0
   -3.3819   -1.2514    0.0000 C   0  0  0  0  0  0  0  0  0  0  0  0
   -2.9704   -2.6938    0.0000 O   0  0  0  0  0  0  0  0  0  0  0  0
   -1.5154   -3.0586    0.0000 C   0  0  0  0  0  0  0  0  0  0  0  0
   -0.4720   -1.9810    0.0000 C   0  0  0  0  0  0  0  0  0  0  0  0
   -6.5957    1.2152    0.0000 O   0  0  0  0  0  0  0  0  0  0  0  0
   -6.3850    2.7003    0.0000 C   0  0  0  0  0  0  0  0  0  0  0  0
   -4.9074    2.9589    0.0000 C   0  0  0  0  0  0  0  0  0  0  0  0
  1  2  1  0
  2  3  1  0
  2  4  2  0
  4  5  1  0
  5  6  1  0
  6  7  2  0
  7  8  1  0
  7  9  1  0
  9 10  2  0
 10 11  1  0
 11 12  2  0
 12 13  1  0
 14 13  1  6
 14 15  1  0
 15 16  2  0
 16 17  1  0
 17 18  2  0
 18 19  1  0
 19 20  2  0
 20 21  1  0
 21 22  1  0
 23 22  1  6
 18 24  1  0
 24 25  1  0
 25 26  2  0
 12  6  1  0
 23 14  1  0
 23 11  1  0
 20 15  1  0
 26 17  1  0
M  END
