
     RDKit          2D

 26 29  0  0  0  0  0  0  0  0999 V2000
   -4.3216   -0.8672    0.0000 C   0  0  0  0  0  0  0  0  0  0  0  0
   -3.1582    0.0796    0.0000 N   0  0  0  0  0  0  0  0  0  0  0  0
   -3.3965    1.5606    0.0000 C   0  0  0  0  0  0  0  0  0  0  0  0
   -4.7982    2.0947    0.0000 O   0  0  0  0  0  0  0  0  0  0  0  0
   -2.2332    2.5074    0.0000 N   0  0  0  0  0  0  0  0  0  0  0  0
   -2.4715    3.9884    0.0000 C   0  0  0  0  0  0  0  0  0  0  0  0
   -0.8315    1.9733    0.0000 C   0  0  0  0  0  0  0  0  0  0  0  0
    0.3319    2.9202    0.0000 O   0  0  0  0  0  0  0  0  0  0  0  0
   -0.5932    0.4924    0.0000 C   0  0  0  0  0  0  0  0  0  0  0  0
    0.5702    1.4392    0.0000 C   0  0  0  0  0  0  0  0  0  0  0  0
    1.9719    0.9052    0.0000 C   0  0  0  0  0  0  0  0  0  0  0  0
    3.1353    1.8520    0.0000 C   0  0  0  0  0  0  0  0  0  0  0  0
    4.5370    1.3179    0.0000 C   0  0  0  0  0  0  0  0  0  0  0  0
    5.7004    2.2648    0.0000 N   0  0  0  0  0  0  0  0  0  0  0  0
    4.7753   -0.1630    0.0000 C   0  0  0  0  0  0  0  0  0  0  0  0
    3.6119   -1.1099    0.0000 C   0  0  0  0  0  0  0  0  0  0  0  0
    2.2102   -0.5758    0.0000 C   0  0  0  0  0  0  0  0  0  0  0  0
    1.0468   -1.5227    0.0000 N   0  0  0  0  0  0  0  0  0  0  0  0
    1.5032   -2.9515    0.0000 C   0  0  0  0  0  0  0  0  0  0  0  0
    0.6706   -4.1992    0.0000 C   0  0  0  0  0  0  0  0  0  0  0  0
   -0.8240   -4.3262    0.0000 C   0  0  0  0  0  0  0  0  0  0  0  0
   -1.8551   -3.2368    0.0000 C   0  0  0  0  0  0  0  0  0  0  0  0
   -1.6464   -1.7515    0.0000 C   0  0  0  0  0  0  0  0  0  0  0  0
   -0.3548   -0.9886    0.0000 C   0  0  0  0  0  0  0  0  0  0  0  0
   -1.7565   -0.4545    0.0000 C   0  0  0  0  0  0  0  0  0  0  0  0
   -1.8241   -1.2488    0.0000 O   0  0  0  0  0  0  0  0  0  0  0  0
  1  2  1  0
  2  3  1  0
  3  4  2  0
  3  5  1  0
  5  6  1  0
  5  7  1  0
  7  8  2  0
  7  9  1  0
  9 10  1  0
 10 11  1  0
 11 12  2  0
 12 13  1  0
 13 14  1  0
 13 15  2  0
 15 16  1  0
 16 17  2  0
 17 18  1  0
 18 19  1  0
 19 20  1  0
 20 21  1  0
 21 22  1  0
 22 23  1  0
 24 23  1  6
  9 25  1  0
 25 26  2  0
 25  2  1  0
 24  9  1  0
 17 11  1  0
 24 18  1  0
M  END
