
     RDKit          2D

 27 32  0  0  0  0  0  0  0  0999 V2000
    3.6271   -1.8472    0.0000 C   0  0  0  0  0  0  0  0  0  0  0  0
    3.5435   -0.3495    0.0000 C   0  0  0  0  0  0  0  0  0  0  0  0
    5.0329   -0.5272    0.0000 C   0  0  0  0  0  0  0  0  0  0  0  0
    3.9771    1.0864    0.0000 C   0  0  0  0  0  0  0  0  0  0  0  0
    2.9504    2.1799    0.0000 C   0  0  0  0  0  0  0  0  0  0  0  0
    1.4900    1.8375    0.0000 C   0  0  0  0  0  0  0  0  0  0  0  0
    0.4632    2.9310    0.0000 O   0  0  0  0  0  0  0  0  0  0  0  0
   -0.9971    2.5886    0.0000 C   0  0  0  0  0  0  0  0  0  0  0  0
   -2.0239    3.6821    0.0000 O   0  0  0  0  0  0  0  0  0  0  0  0
   -1.4308    1.1527    0.0000 C   0  0  0  0  0  0  0  0  0  0  0  0
   -1.6077   -0.0616    0.0000 C   0  0  0  0  0  0  0  0  0  0  0  0
   -2.1324   -1.1708    0.0000 C   0  0  0  0  0  0  0  0  0  0  0  0
   -2.5661   -2.6067    0.0000 C   0  0  0  0  0  0  0  0  0  0  0  0
   -4.0658   -2.6380    0.0000 O   0  0  0  0  0  0  0  0  0  0  0  0
   -4.5590   -1.2214    0.0000 C   0  0  0  0  0  0  0  0  0  0  0  0
   -3.3641   -0.3146    0.0000 C   0  0  0  0  0  0  0  0  0  0  0  0
   -2.9305    1.1213    0.0000 C   0  0  0  0  0  0  0  0  0  0  0  0
   -3.8373    2.3162    0.0000 O   0  0  0  0  0  0  0  0  0  0  0  0
   -0.8377   -1.3768    0.0000 C   0  0  0  0  0  0  0  0  0  0  0  0
   -0.1061   -2.6863    0.0000 O   0  0  0  0  0  0  0  0  0  0  0  0
   -0.4040    0.0591    0.0000 C   0  0  0  0  0  0  0  0  0  0  0  0
    1.0563    0.4016    0.0000 C   0  0  0  0  0  0  0  0  0  0  0  0
    1.0991   -0.0727    0.0000 C   0  0  0  0  0  0  0  0  0  0  0  0
    1.9282    0.1914    0.0000 O   0  0  0  0  0  0  0  0  0  0  0  0
    1.6124   -0.6195    0.0000 C   0  0  0  0  0  0  0  0  0  0  0  0
    1.9990   -3.3637    0.0000 O   0  0  0  0  0  0  0  0  0  0  0  0
    2.0831   -0.6920    0.0000 C   0  0  0  0  0  0  0  0  0  0  0  0
  1  2  1  0
  2  3  1  0
  2  4  1  0
  4  5  1  0
  6  5  1  1
  6  7  1  0
  7  8  1  0
  8  9  2  0
 10  8  1  6
 10 11  1  0
 12 11  1  1
 12 13  1  0
 13 14  1  1
 14 15  1  0
 16 15  1  1
 16 17  1  0
 17 18  2  0
 13 19  1  0
 19 20  1  6
 19 21  1  0
 21 22  1  0
 22 23  1  1
 23 24  1  0
 24 25  1  0
 25 26  1  6
 25 27  1  0
 27  2  1  1
 22  6  1  0
 17 10  1  0
 27 22  1  0
 21 10  1  6
 16 12  1  0
M  END
