
     RDKit          2D

 27 31  0  0  0  0  0  0  0  0999 V2000
   -5.5929   -2.2630    0.0000 C   0  0  0  0  0  0  0  0  0  0  0  0
   -5.0748   -0.8553    0.0000 C   0  0  0  0  0  0  0  0  0  0  0  0
   -3.5967   -0.6002    0.0000 C   0  0  0  0  0  0  0  0  0  0  0  0
   -3.0785    0.8075    0.0000 N   0  0  0  0  0  0  0  0  0  0  0  0
   -4.0386    1.9601    0.0000 C   0  0  0  0  0  0  0  0  0  0  0  0
   -5.5167    1.7049    0.0000 C   0  0  0  0  0  0  0  0  0  0  0  0
   -6.4767    2.8575    0.0000 C   0  0  0  0  0  0  0  0  0  0  0  0
   -4.0443   -1.2346    0.0000 C   0  0  0  0  0  0  0  0  0  0  0  0
   -2.6366   -1.7527    0.0000 N   0  0  0  0  0  0  0  0  0  0  0  0
   -4.1148   -2.0078    0.0000 C   0  0  0  0  0  0  0  0  0  0  0  0
   -2.1185   -0.3450    0.0000 C   0  0  0  0  0  0  0  0  0  0  0  0
   -0.6404   -0.0899    0.0000 C   0  0  0  0  0  0  0  0  0  0  0  0
    0.3196   -1.2424    0.0000 C   0  0  0  0  0  0  0  0  0  0  0  0
    1.7978   -0.9873    0.0000 C   0  0  0  0  0  0  0  0  0  0  0  0
    2.3159    0.4204    0.0000 C   0  0  0  0  0  0  0  0  0  0  0  0
    3.7941    0.6755    0.0000 O   0  0  0  0  0  0  0  0  0  0  0  0
    4.7541   -0.4770    0.0000 C   0  0  0  0  0  0  0  0  0  0  0  0
    6.2322   -0.2219    0.0000 C   0  0  0  0  0  0  0  0  0  0  0  0
    7.1922   -1.3745    0.0000 C   0  0  0  0  0  0  0  0  0  0  0  0
    8.6704   -1.1193    0.0000 C   0  0  0  0  0  0  0  0  0  0  0  0
    9.1885    0.2883    0.0000 C   0  0  0  0  0  0  0  0  0  0  0  0
    8.2285    1.4409    0.0000 C   0  0  0  0  0  0  0  0  0  0  0  0
    6.7503    1.1858    0.0000 C   0  0  0  0  0  0  0  0  0  0  0  0
    1.3559    1.5729    0.0000 C   0  0  0  0  0  0  0  0  0  0  0  0
   -0.1223    1.3178    0.0000 C   0  0  0  0  0  0  0  0  0  0  0  0
   -6.0348    0.2973    0.0000 C   0  0  0  0  0  0  0  0  0  0  0  0
   -7.5130    0.0421    0.0000 O   0  0  0  0  0  0  0  0  0  0  0  0
  2  1  1  6
  2  3  1  0
  3  4  1  0
  4  5  1  0
  5  6  1  0
  6  7  1  1
  6  8  1  0
  8  9  1  0
  9 10  1  0
  9 11  1  0
 11 12  1  0
 12 13  2  0
 13 14  1  0
 14 15  2  0
 15 16  1  0
 16 17  1  0
 17 18  1  0
 18 19  2  0
 19 20  1  0
 20 21  2  0
 21 22  1  0
 22 23  2  0
 15 24  1  0
 24 25  2  0
  6 26  1  0
 26 27  1  0
 10  2  1  0
 25 12  1  0
 26  2  1  0
 11  4  1  0
 23 18  1  0
M  END
