
     RDKit          2D

 27 30  0  0  0  0  0  0  0  0999 V2000
   -7.0767   -3.8112    0.0000 C   0  0  0  0  0  0  0  0  0  0  0  0
   -5.6443   -3.3661    0.0000 C   0  0  0  0  0  0  0  0  0  0  0  0
   -5.3135   -1.9030    0.0000 C   0  0  0  0  0  0  0  0  0  0  0  0
   -6.4152   -0.8850    0.0000 C   0  0  0  0  0  0  0  0  0  0  0  0
   -6.0845    0.5781    0.0000 C   0  0  0  0  0  0  0  0  0  0  0  0
   -4.6520    1.0232    0.0000 C   0  0  0  0  0  0  0  0  0  0  0  0
   -4.3213    2.4863    0.0000 O   0  0  0  0  0  0  0  0  0  0  0  0
   -2.8888    2.9314    0.0000 C   0  0  0  0  0  0  0  0  0  0  0  0
   -2.5581    4.3944    0.0000 O   0  0  0  0  0  0  0  0  0  0  0  0
   -1.7871    1.9134    0.0000 C   0  0  0  0  0  0  0  0  0  0  0  0
   -2.1179    0.4503    0.0000 C   0  0  0  0  0  0  0  0  0  0  0  0
   -1.0162   -0.5677    0.0000 C   0  0  0  0  0  0  0  0  0  0  0  0
    0.4162   -0.1226    0.0000 N   0  0  0  0  0  0  0  0  0  0  0  0
    1.5179   -1.1406    0.0000 C   0  0  0  0  0  0  0  0  0  0  0  0
    2.9504   -0.6955    0.0000 C   0  0  0  0  0  0  0  0  0  0  0  0
    3.2811    0.7676    0.0000 C   0  0  0  0  0  0  0  0  0  0  0  0
    4.7135    1.2127    0.0000 C   0  0  0  0  0  0  0  0  0  0  0  0
    5.8152    0.1948    0.0000 C   0  0  0  0  0  0  0  0  0  0  0  0
    5.4845   -1.2683    0.0000 C   0  0  0  0  0  0  0  0  0  0  0  0
    6.5862   -2.2863    0.0000 C   0  0  0  0  0  0  0  0  0  0  0  0
    8.0186   -1.8412    0.0000 C   0  0  0  0  0  0  0  0  0  0  0  0
    8.3494   -0.3781    0.0000 C   0  0  0  0  0  0  0  0  0  0  0  0
    7.2477    0.6399    0.0000 C   0  0  0  0  0  0  0  0  0  0  0  0
    2.1794    1.7856    0.0000 C   0  0  0  0  0  0  0  0  0  0  0  0
    0.7470    1.3405    0.0000 C   0  0  0  0  0  0  0  0  0  0  0  0
   -3.5503    0.0052    0.0000 C   0  0  0  0  0  0  0  0  0  0  0  0
   -3.8811   -1.4579    0.0000 C   0  0  0  0  0  0  0  0  0  0  0  0
  1  2  1  0
  2  3  1  0
  3  4  2  0
  4  5  1  0
  5  6  2  0
  6  7  1  0
  7  8  1  0
  8  9  2  0
  8 10  1  0
 10 11  2  0
 11 12  1  0
 12 13  1  0
 13 14  1  0
 14 15  1  0
 15 16  1  0
 16 17  1  0
 17 18  1  0
 18 19  2  0
 19 20  1  0
 20 21  2  0
 21 22  1  0
 22 23  2  0
 16 24  1  0
 24 25  1  0
 11 26  1  0
 26 27  2  0
 27  3  1  0
 26  6  1  0
 25 13  1  0
 23 18  1  0
M  END
