
     RDKit          2D

 27 30  0  0  0  0  0  0  0  0999 V2000
   -0.9685   -0.2671    0.0000 C   0  0  0  0  0  0  0  0  0  0  0  0
    0.4327    0.2684    0.0000 C   0  0  0  0  0  0  0  0  0  0  0  0
    1.5970   -0.6773    0.0000 C   0  0  0  0  0  0  0  0  0  0  0  0
    2.9982   -0.1418    0.0000 C   0  0  0  0  0  0  0  0  0  0  0  0
    3.2350    1.3393    0.0000 C   0  0  0  0  0  0  0  0  0  0  0  0
    4.6362    1.8748    0.0000 C   0  0  0  0  0  0  0  0  0  0  0  0
    4.8730    3.3560    0.0000 C   0  0  0  0  0  0  0  0  0  0  0  0
    3.7087    4.3017    0.0000 C   0  0  0  0  0  0  0  0  0  0  0  0
    2.3076    3.7662    0.0000 C   0  0  0  0  0  0  0  0  0  0  0  0
    2.0707    2.2850    0.0000 C   0  0  0  0  0  0  0  0  0  0  0  0
    0.6695    1.7496    0.0000 O   0  0  0  0  0  0  0  0  0  0  0  0
    2.7613   -1.6230    0.0000 C   0  0  0  0  0  0  0  0  0  0  0  0
    3.9257   -2.5687    0.0000 C   0  0  0  0  0  0  0  0  0  0  0  0
    3.6888   -4.0499    0.0000 N   0  0  0  0  0  0  0  0  0  0  0  0
    5.3268   -2.0333    0.0000 O   0  0  0  0  0  0  0  0  0  0  0  0
    1.3602   -2.1585    0.0000 C   0  0  0  0  0  0  0  0  0  0  0  0
    1.1233   -3.6397    0.0000 O   0  0  0  0  0  0  0  0  0  0  0  0
    0.1959   -1.2128    0.0000 N   0  0  0  0  0  0  0  0  0  0  0  0
   -1.2053   -1.7483    0.0000 C   0  0  0  0  0  0  0  0  0  0  0  0
   -2.3696   -0.8026    0.0000 C   0  0  0  0  0  0  0  0  0  0  0  0
   -3.7708   -1.3381    0.0000 O   0  0  0  0  0  0  0  0  0  0  0  0
   -4.9351   -0.3924    0.0000 C   0  0  0  0  0  0  0  0  0  0  0  0
   -4.6983    1.0888    0.0000 C   0  0  0  0  0  0  0  0  0  0  0  0
   -5.8626    2.0345    0.0000 C   0  0  0  0  0  0  0  0  0  0  0  0
   -7.2638    1.4991    0.0000 C   0  0  0  0  0  0  0  0  0  0  0  0
   -7.5006    0.0179    0.0000 C   0  0  0  0  0  0  0  0  0  0  0  0
   -6.3363   -0.9278    0.0000 C   0  0  0  0  0  0  0  0  0  0  0  0
  1  2  1  0
  2  3  1  0
  3  4  1  0
  4  5  1  0
  5  6  2  0
  6  7  1  0
  7  8  2  0
  8  9  1  0
  9 10  2  0
 10 11  1  0
  4 12  1  0
 12 13  1  0
 13 14  1  0
 13 15  2  0
 12 16  1  0
 16 17  2  0
 16 18  1  0
 18 19  1  0
 19 20  1  0
 20 21  1  0
 21 22  1  0
 22 23  2  0
 23 24  1  0
 24 25  2  0
 25 26  1  0
 26 27  2  0
 11  2  1  0
 27 22  1  0
 18  2  1  0
 10  5  1  0
M  END
