
     RDKit          2D

 27 26  0  0  0  0  0  0  0  0999 V2000
  -12.1944    2.4666    0.0000 C   0  0  0  0  0  0  0  0  0  0  0  0
  -10.7760    1.9785    0.0000 C   0  0  0  0  0  0  0  0  0  0  0  0
   -9.6441    2.9628    0.0000 C   0  0  0  0  0  0  0  0  0  0  0  0
   -8.2258    2.4746    0.0000 C   0  0  0  0  0  0  0  0  0  0  0  0
   -7.9393    1.0023    0.0000 C   0  0  0  0  0  0  0  0  0  0  0  0
   -6.5209    0.5141    0.0000 C   0  0  0  0  0  0  0  0  0  0  0  0
   -5.3890    1.4984    0.0000 O   0  0  0  0  0  0  0  0  0  0  0  0
   -6.2345   -0.9583    0.0000 C   0  0  0  0  0  0  0  0  0  0  0  0
   -4.8161   -1.4464    0.0000 C   0  0  0  0  0  0  0  0  0  0  0  0
   -4.5297   -2.9188    0.0000 C   0  0  0  0  0  0  0  0  0  0  0  0
   -3.1113   -3.4069    0.0000 C   0  0  0  0  0  0  0  0  0  0  0  0
   -1.9794   -2.4226    0.0000 C   0  0  0  0  0  0  0  0  0  0  0  0
   -0.5610   -2.9107    0.0000 C   0  0  0  0  0  0  0  0  0  0  0  0
    0.5709   -1.9264    0.0000 C   0  0  0  0  0  0  0  0  0  0  0  0
    1.9892   -2.4146    0.0000 C   0  0  0  0  0  0  0  0  0  0  0  0
    3.1211   -1.4303    0.0000 C   0  0  0  0  0  0  0  0  0  0  0  0
    2.8347    0.0421    0.0000 O   0  0  0  0  0  0  0  0  0  0  0  0
    4.5395   -1.9184    0.0000 C   0  0  0  0  0  0  0  0  0  0  0  0
    4.8259   -3.3908    0.0000 O   0  0  0  0  0  0  0  0  0  0  0  0
    5.6714   -0.9341    0.0000 C   0  0  0  0  0  0  0  0  0  0  0  0
    7.0897   -1.4222    0.0000 C   0  0  0  0  0  0  0  0  0  0  0  0
    8.2216   -0.4380    0.0000 C   0  0  0  0  0  0  0  0  0  0  0  0
    7.9352    1.0344    0.0000 C   0  0  0  0  0  0  0  0  0  0  0  0
    9.0671    2.0187    0.0000 C   0  0  0  0  0  0  0  0  0  0  0  0
    8.7806    3.4911    0.0000 C   0  0  0  0  0  0  0  0  0  0  0  0
    7.3623    3.9792    0.0000 O   0  0  0  0  0  0  0  0  0  0  0  0
    9.9125    4.4754    0.0000 O   0  0  0  0  0  0  0  0  0  0  0  0
  1  2  1  0
  2  3  1  0
  3  4  2  0
  4  5  1  0
  5  6  1  0
  6  7  1  1
  6  8  1  0
  8  9  2  0
  9 10  1  0
 10 11  2  0
 11 12  1  0
 12 13  2  0
 13 14  1  0
 14 15  2  0
 15 16  1  0
 16 17  1  1
 16 18  1  0
 18 19  1  6
 18 20  1  0
 20 21  1  0
 21 22  2  0
 22 23  1  0
 23 24  1  0
 24 25  1  0
 25 26  2  0
 25 27  1  0
M  END
