
     RDKit          2D

 27 29  0  0  0  0  0  0  0  0999 V2000
   10.4097    0.3375    0.0000 C   0  0  0  0  0  0  0  0  0  0  0  0
    9.1348   -0.4529    0.0000 O   0  0  0  0  0  0  0  0  0  0  0  0
    7.8129    0.2560    0.0000 C   0  0  0  0  0  0  0  0  0  0  0  0
    6.5380   -0.5344    0.0000 C   0  0  0  0  0  0  0  0  0  0  0  0
    6.5851   -2.0337    0.0000 O   0  0  0  0  0  0  0  0  0  0  0  0
    5.2161    0.1744    0.0000 C   0  0  0  0  0  0  0  0  0  0  0  0
    3.9412   -0.6160    0.0000 N   0  0  0  0  0  0  0  0  0  0  0  0
    2.6193    0.0929    0.0000 C   0  0  0  0  0  0  0  0  0  0  0  0
    2.5722    1.5921    0.0000 O   0  0  0  0  0  0  0  0  0  0  0  0
    1.3444   -0.6975    0.0000 C   0  0  0  0  0  0  0  0  0  0  0  0
    0.0225    0.0113    0.0000 C   0  0  0  0  0  0  0  0  0  0  0  0
   -1.2524   -0.7791    0.0000 C   0  0  0  0  0  0  0  0  0  0  0  0
   -1.2053   -2.2783    0.0000 C   0  0  0  0  0  0  0  0  0  0  0  0
   -2.5743   -0.0702    0.0000 C   0  0  0  0  0  0  0  0  0  0  0  0
   -2.6214    1.4290    0.0000 C   0  0  0  0  0  0  0  0  0  0  0  0
   -3.9433    2.1379    0.0000 C   0  0  0  0  0  0  0  0  0  0  0  0
   -5.2182    1.3475    0.0000 C   0  0  0  0  0  0  0  0  0  0  0  0
   -6.5401    2.0563    0.0000 C   0  0  0  0  0  0  0  0  0  0  0  0
   -5.1711   -0.1518    0.0000 C   0  0  0  0  0  0  0  0  0  0  0  0
   -3.8492   -0.8606    0.0000 C   0  0  0  0  0  0  0  0  0  0  0  0
   -4.1148   -2.3369    0.0000 O   0  0  0  0  0  0  0  0  0  0  0  0
   -5.6010   -2.5405    0.0000 C   0  0  0  0  0  0  0  0  0  0  0  0
   -6.2538   -1.1900    0.0000 C   0  0  0  0  0  0  0  0  0  0  0  0
   -7.7301   -0.9243    0.0000 C   0  0  0  0  0  0  0  0  0  0  0  0
   -1.3466    2.2194    0.0000 O   0  0  0  0  0  0  0  0  0  0  0  0
   -0.0246    1.5106    0.0000 C   0  0  0  0  0  0  0  0  0  0  0  0
    1.2502    2.3010    0.0000 O   0  0  0  0  0  0  0  0  0  0  0  0
  1  2  1  0
  2  3  1  0
  3  4  1  0
  4  5  1  1
  4  6  1  0
  6  7  1  0
  7  8  1  0
  8  9  2  0
  8 10  1  0
 10 11  1  0
 11 12  2  0
 12 13  1  0
 12 14  1  0
 14 15  2  0
 15 16  1  0
 16 17  2  0
 17 18  1  0
 17 19  1  0
 19 20  2  0
 20 21  1  0
 21 22  1  0
 22 23  2  0
 23 24  1  0
 15 25  1  0
 25 26  1  0
 26 27  2  0
 26 11  1  0
 20 14  1  0
 23 19  1  0
M  END
