
     RDKit          2D

 27 30  0  0  0  0  0  0  0  0999 V2000
   -6.4917   -0.4634    0.0000 C   0  0  0  0  0  0  0  0  0  0  0  0
   -5.1167    0.1360    0.0000 C   0  0  0  0  0  0  0  0  0  0  0  0
   -3.9101   -0.7551    0.0000 C   0  0  0  0  0  0  0  0  0  0  0  0
   -3.9217   -2.2550    0.0000 C   0  0  0  0  0  0  0  0  0  0  0  0
   -2.4988   -2.7296    0.0000 C   0  0  0  0  0  0  0  0  0  0  0  0
   -1.6077   -1.5230    0.0000 C   0  0  0  0  0  0  0  0  0  0  0  0
   -0.1147   -1.3778    0.0000 C   0  0  0  0  0  0  0  0  0  0  0  0
    0.7575   -2.5981    0.0000 C   0  0  0  0  0  0  0  0  0  0  0  0
    2.2504   -2.4529    0.0000 C   0  0  0  0  0  0  0  0  0  0  0  0
    2.8712   -1.0874    0.0000 C   0  0  0  0  0  0  0  0  0  0  0  0
    4.3641   -0.9422    0.0000 C   0  0  0  0  0  0  0  0  0  0  0  0
    4.9849    0.4233    0.0000 C   0  0  0  0  0  0  0  0  0  0  0  0
    6.4778    0.5685    0.0000 N   0  0  0  0  0  0  0  0  0  0  0  0
    7.3500   -0.6518    0.0000 C   0  0  0  0  0  0  0  0  0  0  0  0
    7.0985    1.9341    0.0000 C   0  0  0  0  0  0  0  0  0  0  0  0
    4.1126    1.6437    0.0000 C   0  0  0  0  0  0  0  0  0  0  0  0
    2.6197    1.4985    0.0000 C   0  0  0  0  0  0  0  0  0  0  0  0
    1.9989    0.1329    0.0000 C   0  0  0  0  0  0  0  0  0  0  0  0
    1.1267    1.3533    0.0000 C   0  0  0  0  0  0  0  0  0  0  0  0
    0.5060   -0.0123    0.0000 C   0  0  0  0  0  0  0  0  0  0  0  0
   -0.3662    1.2081    0.0000 C   0  0  0  0  0  0  0  0  0  0  0  0
   -1.8592    1.0629    0.0000 C   0  0  0  0  0  0  0  0  0  0  0  0
   -2.4799   -0.3026    0.0000 C   0  0  0  0  0  0  0  0  0  0  0  0
   -3.4749    0.8198    0.0000 C   0  0  0  0  0  0  0  0  0  0  0  0
   -4.9483    1.6265    0.0000 N   0  0  0  0  0  0  0  0  0  0  0  0
   -6.1550    2.5176    0.0000 C   0  0  0  0  0  0  0  0  0  0  0  0
   -3.5733    2.2260    0.0000 C   0  0  0  0  0  0  0  0  0  0  0  0
  2  1  1  6
  2  3  1  0
  3  4  1  6
  4  5  1  0
  6  5  1  6
  6  7  1  0
  7  8  1  1
  8  9  1  0
  9 10  2  0
 10 11  1  0
 11 12  1  0
 12 13  1  1
 13 14  1  0
 13 15  1  0
 12 16  1  0
 16 17  1  0
 17 18  1  0
 18 19  1  6
 18 20  1  0
 20 21  1  1
 21 22  1  0
 22 23  1  0
 23 24  1  6
  2 25  1  0
 25 26  1  0
 25 27  1  0
 23  3  1  0
 23  6  1  0
 20  7  1  0
 18 10  1  0
M  END
