
     RDKit          2D

 27 29  0  0  0  0  0  0  0  0999 V2000
   -8.9267    0.9475    0.0000 C   0  0  0  0  0  0  0  0  0  0  0  0
   -7.4634    1.2773    0.0000 C   0  0  0  0  0  0  0  0  0  0  0  0
   -6.4461    0.1749    0.0000 N   0  0  0  0  0  0  0  0  0  0  0  0
   -6.8922   -1.2572    0.0000 C   0  0  0  0  0  0  0  0  0  0  0  0
   -8.3555   -1.5870    0.0000 C   0  0  0  0  0  0  0  0  0  0  0  0
   -4.9828    0.5047    0.0000 C   0  0  0  0  0  0  0  0  0  0  0  0
   -4.5368    1.9368    0.0000 O   0  0  0  0  0  0  0  0  0  0  0  0
   -3.9656   -0.5977    0.0000 O   0  0  0  0  0  0  0  0  0  0  0  0
   -2.5023   -0.2680    0.0000 C   0  0  0  0  0  0  0  0  0  0  0  0
   -2.0562    1.1642    0.0000 C   0  0  0  0  0  0  0  0  0  0  0  0
   -0.5929    1.4939    0.0000 C   0  0  0  0  0  0  0  0  0  0  0  0
    0.4243    0.3915    0.0000 C   0  0  0  0  0  0  0  0  0  0  0  0
    1.8876    0.7213    0.0000 C   0  0  0  0  0  0  0  0  0  0  0  0
    2.3337    2.1534    0.0000 O   0  0  0  0  0  0  0  0  0  0  0  0
    2.9048   -0.3811    0.0000 C   0  0  0  0  0  0  0  0  0  0  0  0
    4.3681   -0.0513    0.0000 C   0  0  0  0  0  0  0  0  0  0  0  0
    5.3854   -1.1537    0.0000 C   0  0  0  0  0  0  0  0  0  0  0  0
    6.8487   -0.8240    0.0000 C   0  0  0  0  0  0  0  0  0  0  0  0
    7.2948    0.6082    0.0000 C   0  0  0  0  0  0  0  0  0  0  0  0
    8.7581    0.9379    0.0000 Cl  0  0  0  0  0  0  0  0  0  0  0  0
    6.2775    1.7105    0.0000 C   0  0  0  0  0  0  0  0  0  0  0  0
    4.8142    1.3808    0.0000 C   0  0  0  0  0  0  0  0  0  0  0  0
    2.4588   -1.8132    0.0000 C   0  0  0  0  0  0  0  0  0  0  0  0
    3.4760   -2.9156    0.0000 C   0  0  0  0  0  0  0  0  0  0  0  0
    0.9955   -2.1430    0.0000 O   0  0  0  0  0  0  0  0  0  0  0  0
   -0.0218   -1.0406    0.0000 C   0  0  0  0  0  0  0  0  0  0  0  0
   -1.4851   -1.3704    0.0000 C   0  0  0  0  0  0  0  0  0  0  0  0
  1  2  1  0
  2  3  1  0
  3  4  1  0
  4  5  1  0
  3  6  1  0
  6  7  2  0
  6  8  1  0
  8  9  1  0
  9 10  2  0
 10 11  1  0
 11 12  2  0
 12 13  1  0
 13 14  2  0
 13 15  1  0
 15 16  1  0
 16 17  2  0
 17 18  1  0
 18 19  2  0
 19 20  1  0
 19 21  1  0
 21 22  2  0
 15 23  2  0
 23 24  1  0
 23 25  1  0
 25 26  1  0
 26 27  2  0
 27  9  1  0
 26 12  1  0
 22 16  1  0
M  END
