
     RDKit          2D

 27 30  0  0  0  0  0  0  0  0999 V2000
   -1.1809   -1.5765    0.0000 O   0  0  0  0  0  0  0  0  0  0  0  0
   -1.2736   -0.0794    0.0000 C   0  0  0  0  0  0  0  0  0  0  0  0
   -2.6165    0.5889    0.0000 C   0  0  0  0  0  0  0  0  0  0  0  0
   -3.8667   -0.2400    0.0000 C   0  0  0  0  0  0  0  0  0  0  0  0
   -5.2096    0.4282    0.0000 C   0  0  0  0  0  0  0  0  0  0  0  0
   -5.4584    1.9075    0.0000 C   0  0  0  0  0  0  0  0  0  0  0  0
   -6.9421    2.1280    0.0000 N   0  0  0  0  0  0  0  0  0  0  0  0
   -7.6103    0.7851    0.0000 C   0  0  0  0  0  0  0  0  0  0  0  0
   -9.0555    0.3831    0.0000 C   0  0  0  0  0  0  0  0  0  0  0  0
   -9.4299   -1.0694    0.0000 C   0  0  0  0  0  0  0  0  0  0  0  0
   -8.3592   -2.1199    0.0000 C   0  0  0  0  0  0  0  0  0  0  0  0
   -6.9141   -1.7179    0.0000 C   0  0  0  0  0  0  0  0  0  0  0  0
   -6.5396   -0.2654    0.0000 C   0  0  0  0  0  0  0  0  0  0  0  0
   -0.0234    0.7495    0.0000 N   0  0  0  0  0  0  0  0  0  0  0  0
    1.3195    0.0812    0.0000 C   0  0  0  0  0  0  0  0  0  0  0  0
    2.5697    0.9101    0.0000 C   0  0  0  0  0  0  0  0  0  0  0  0
    3.9126    0.2419    0.0000 N   0  0  0  0  0  0  0  0  0  0  0  0
    4.0053   -1.2553    0.0000 C   0  0  0  0  0  0  0  0  0  0  0  0
    5.3483   -1.9235    0.0000 N   0  0  0  0  0  0  0  0  0  0  0  0
    6.5984   -1.0947    0.0000 C   0  0  0  0  0  0  0  0  0  0  0  0
    7.9414   -1.7629    0.0000 C   0  0  0  0  0  0  0  0  0  0  0  0
    9.1915   -0.9340    0.0000 C   0  0  0  0  0  0  0  0  0  0  0  0
    9.0988    0.5631    0.0000 C   0  0  0  0  0  0  0  0  0  0  0  0
    7.7559    1.2314    0.0000 C   0  0  0  0  0  0  0  0  0  0  0  0
    6.5057    0.4025    0.0000 C   0  0  0  0  0  0  0  0  0  0  0  0
    5.1628    1.0707    0.0000 C   0  0  0  0  0  0  0  0  0  0  0  0
    5.0700    2.5679    0.0000 O   0  0  0  0  0  0  0  0  0  0  0  0
  1  2  2  0
  2  3  1  0
  3  4  1  0
  4  5  1  0
  5  6  2  0
  6  7  1  0
  7  8  1  0
  8  9  2  0
  9 10  1  0
 10 11  2  0
 11 12  1  0
 12 13  2  0
  2 14  1  0
 14 15  1  0
 15 16  1  0
 16 17  1  0
 17 18  1  0
 18 19  2  0
 19 20  1  0
 20 21  2  0
 21 22  1  0
 22 23  2  0
 23 24  1  0
 24 25  2  0
 25 26  1  0
 26 27  2  0
 13  5  1  0
 26 17  1  0
 13  8  1  0
 25 20  1  0
M  END
