
     RDKit          2D

 27 30  0  0  0  0  0  0  0  0999 V2000
    8.2334   -0.9427    0.0000 C   0  0  0  0  0  0  0  0  0  0  0  0
    7.5973    0.4158    0.0000 C   0  0  0  0  0  0  0  0  0  0  0  0
    6.9612    1.7742    0.0000 C   0  0  0  0  0  0  0  0  0  0  0  0
    8.9557    1.0519    0.0000 C   0  0  0  0  0  0  0  0  0  0  0  0
    6.2389   -0.2203    0.0000 C   0  0  0  0  0  0  0  0  0  0  0  0
    6.1105   -1.7148    0.0000 C   0  0  0  0  0  0  0  0  0  0  0  0
    4.7521   -2.3510    0.0000 C   0  0  0  0  0  0  0  0  0  0  0  0
    3.5220   -1.4926    0.0000 N   0  0  0  0  0  0  0  0  0  0  0  0
    3.6503    0.0019    0.0000 C   0  0  0  0  0  0  0  0  0  0  0  0
    2.4202    0.8603    0.0000 N   0  0  0  0  0  0  0  0  0  0  0  0
    1.0618    0.2242    0.0000 C   0  0  0  0  0  0  0  0  0  0  0  0
    0.7779   -1.2487    0.0000 C   0  0  0  0  0  0  0  0  0  0  0  0
   -0.7106   -1.4339    0.0000 O   0  0  0  0  0  0  0  0  0  0  0  0
   -1.3467   -0.0754    0.0000 C   0  0  0  0  0  0  0  0  0  0  0  0
   -0.2513    0.9493    0.0000 C   0  0  0  0  0  0  0  0  0  0  0  0
   -0.8874    2.3078    0.0000 O   0  0  0  0  0  0  0  0  0  0  0  0
   -2.3760    2.1226    0.0000 C   0  0  0  0  0  0  0  0  0  0  0  0
   -2.6598    0.6497    0.0000 C   0  0  0  0  0  0  0  0  0  0  0  0
   -4.0183    0.0135    0.0000 N   0  0  0  0  0  0  0  0  0  0  0  0
   -5.2484    0.8719    0.0000 C   0  0  0  0  0  0  0  0  0  0  0  0
   -6.6068    0.2358    0.0000 C   0  0  0  0  0  0  0  0  0  0  0  0
   -7.8369    1.0942    0.0000 C   0  0  0  0  0  0  0  0  0  0  0  0
   -9.1954    0.4581    0.0000 C   0  0  0  0  0  0  0  0  0  0  0  0
   -9.3237   -1.0364    0.0000 C   0  0  0  0  0  0  0  0  0  0  0  0
   -8.0936   -1.8948    0.0000 C   0  0  0  0  0  0  0  0  0  0  0  0
   -6.7351   -1.2587    0.0000 C   0  0  0  0  0  0  0  0  0  0  0  0
    5.0088    0.6380    0.0000 N   0  0  0  0  0  0  0  0  0  0  0  0
  1  2  1  0
  2  3  1  0
  2  4  1  0
  2  5  1  0
  5  6  2  0
  6  7  1  0
  7  8  2  0
  8  9  1  0
  9 10  1  0
 11 10  1  1
 11 12  1  0
 12 13  1  0
 14 13  1  6
 14 15  1  0
 15 16  1  6
 16 17  1  0
 17 18  1  0
 18 19  1  1
 19 20  1  0
 20 21  1  0
 21 22  1  0
 22 23  1  0
 23 24  1  0
 24 25  1  0
 25 26  1  0
  9 27  2  0
 27  5  1  0
 15 11  1  0
 26 21  1  0
 18 14  1  0
M  END
