
     RDKit          2D

 27 29  0  0  0  0  0  0  0  0999 V2000
   -9.8652   -1.4860    0.0000 C   0  0  0  0  0  0  0  0  0  0  0  0
   -8.4706   -0.9339    0.0000 C   0  0  0  0  0  0  0  0  0  0  0  0
   -8.2514    0.5500    0.0000 C   0  0  0  0  0  0  0  0  0  0  0  0
   -6.8567    1.1022    0.0000 C   0  0  0  0  0  0  0  0  0  0  0  0
   -5.6812    0.1704    0.0000 C   0  0  0  0  0  0  0  0  0  0  0  0
   -4.2865    0.7225    0.0000 C   0  0  0  0  0  0  0  0  0  0  0  0
   -3.9134    2.1754    0.0000 N   0  0  0  0  0  0  0  0  0  0  0  0
   -2.4164    2.2695    0.0000 O   0  0  0  0  0  0  0  0  0  0  0  0
   -1.8642    0.8748    0.0000 C   0  0  0  0  0  0  0  0  0  0  0  0
   -0.4114    0.5017    0.0000 C   0  0  0  0  0  0  0  0  0  0  0  0
    0.7444    1.4578    0.0000 C   0  0  0  0  0  0  0  0  0  0  0  0
    2.0109    0.6540    0.0000 C   0  0  0  0  0  0  0  0  0  0  0  0
    3.4056    1.2062    0.0000 N   0  0  0  0  0  0  0  0  0  0  0  0
    4.5811    0.2744    0.0000 C   0  0  0  0  0  0  0  0  0  0  0  0
    4.3619   -1.2095    0.0000 O   0  0  0  0  0  0  0  0  0  0  0  0
    5.9758    0.8265    0.0000 C   0  0  0  0  0  0  0  0  0  0  0  0
    7.1513   -0.1052    0.0000 S   0  0  0  0  0  0  0  0  0  0  0  0
    8.5460    0.4469    0.0000 C   0  0  0  0  0  0  0  0  0  0  0  0
    9.7215   -0.4849    0.0000 C   0  0  0  0  0  0  0  0  0  0  0  0
    9.5023   -1.9688    0.0000 O   0  0  0  0  0  0  0  0  0  0  0  0
   11.1162    0.0673    0.0000 O   0  0  0  0  0  0  0  0  0  0  0  0
    1.6378   -0.7988    0.0000 C   0  0  0  0  0  0  0  0  0  0  0  0
    0.1408   -0.8929    0.0000 N   0  0  0  0  0  0  0  0  0  0  0  0
   -0.6630   -2.1594    0.0000 C   0  0  0  0  0  0  0  0  0  0  0  0
   -3.0200   -0.0813    0.0000 N   0  0  0  0  0  0  0  0  0  0  0  0
   -5.9004   -1.3135    0.0000 C   0  0  0  0  0  0  0  0  0  0  0  0
   -7.2951   -1.8656    0.0000 C   0  0  0  0  0  0  0  0  0  0  0  0
  1  2  1  0
  2  3  2  0
  3  4  1  0
  4  5  2  0
  5  6  1  0
  6  7  2  0
  7  8  1  0
  8  9  1  0
 10  9  1  6
 10 11  1  0
 11 12  1  0
 12 13  1  6
 13 14  1  0
 14 15  2  0
 14 16  1  0
 16 17  1  0
 17 18  1  0
 18 19  1  0
 19 20  2  0
 19 21  1  0
 12 22  1  0
 22 23  1  0
 23 24  1  0
  9 25  2  0
  5 26  1  0
 26 27  2  0
 27  2  1  0
 25  6  1  0
 23 10  1  0
M  END
