
     RDKit          2D

 27 27  0  0  0  0  0  0  0  0999 V2000
    6.3634   -3.8221    0.0000 C   0  0  0  0  0  0  0  0  0  0  0  0
    5.1076   -3.0017    0.0000 C   0  0  0  0  0  0  0  0  0  0  0  0
    3.7693   -3.6790    0.0000 O   0  0  0  0  0  0  0  0  0  0  0  0
    5.1902   -1.5040    0.0000 O   0  0  0  0  0  0  0  0  0  0  0  0
    3.9344   -0.6836    0.0000 C   0  0  0  0  0  0  0  0  0  0  0  0
    2.8170   -1.6842    0.0000 C   0  0  0  0  0  0  0  0  0  0  0  0
    1.3489   -1.9921    0.0000 C   0  0  0  0  0  0  0  0  0  0  0  0
   -0.0764   -1.5247    0.0000 C   0  0  0  0  0  0  0  0  0  0  0  0
   -1.0771   -0.4072    0.0000 C   0  0  0  0  0  0  0  0  0  0  0  0
   -2.4154   -1.0846    0.0000 C   0  0  0  0  0  0  0  0  0  0  0  0
   -2.4980   -2.5823    0.0000 C   0  0  0  0  0  0  0  0  0  0  0  0
   -3.6712   -0.2642    0.0000 C   0  0  0  0  0  0  0  0  0  0  0  0
   -5.0095   -0.9416    0.0000 C   0  0  0  0  0  0  0  0  0  0  0  0
   -6.2653   -0.1212    0.0000 C   0  0  0  0  0  0  0  0  0  0  0  0
   -7.6037   -0.7985    0.0000 C   0  0  0  0  0  0  0  0  0  0  0  0
   -8.8595    0.0219    0.0000 C   0  0  0  0  0  0  0  0  0  0  0  0
   -7.6863   -2.2962    0.0000 O   0  0  0  0  0  0  0  0  0  0  0  0
   -1.3849    1.0608    0.0000 O   0  0  0  0  0  0  0  0  0  0  0  0
   -0.9175    2.4861    0.0000 C   0  0  0  0  0  0  0  0  0  0  0  0
   -2.1733    3.3065    0.0000 O   0  0  0  0  0  0  0  0  0  0  0  0
    0.1999    3.4868    0.0000 C   0  0  0  0  0  0  0  0  0  0  0  0
    1.6680    3.7947    0.0000 C   0  0  0  0  0  0  0  0  0  0  0  0
    1.7506    5.2924    0.0000 O   0  0  0  0  0  0  0  0  0  0  0  0
    3.0933    3.3273    0.0000 C   0  0  0  0  0  0  0  0  0  0  0  0
    4.0940    2.2098    0.0000 C   0  0  0  0  0  0  0  0  0  0  0  0
    4.4018    0.7417    0.0000 C   0  0  0  0  0  0  0  0  0  0  0  0
    5.8996    0.6592    0.0000 C   0  0  0  0  0  0  0  0  0  0  0  0
  1  2  1  0
  2  3  2  0
  2  4  1  0
  5  4  1  6
  5  6  1  0
  6  7  2  0
  7  8  1  0
  8  9  1  0
  9 10  1  6
 10 11  1  0
 10 12  2  0
 12 13  1  0
 13 14  2  0
 14 15  1  0
 15 16  1  6
 15 17  1  0
  9 18  1  0
 18 19  1  0
 19 20  2  0
 19 21  1  0
 21 22  1  0
 22 23  1  6
 22 24  1  0
 24 25  1  0
 25 26  1  0
 26 27  1  1
 26  5  1  0
M  END
