
     RDKit          2D

 27 28  0  0  0  0  0  0  0  0999 V2000
   -4.6696   -0.4928    0.0000 C   0  0  0  0  0  0  0  0  0  0  0  0
   -3.2101   -0.8391    0.0000 C   0  0  0  0  0  0  0  0  0  0  0  0
   -2.7803   -2.2762    0.0000 C   0  0  0  0  0  0  0  0  0  0  0  0
   -3.8099   -3.3670    0.0000 C   0  0  0  0  0  0  0  0  0  0  0  0
   -1.3208   -2.6225    0.0000 C   0  0  0  0  0  0  0  0  0  0  0  0
   -0.8910   -4.0596    0.0000 O   0  0  0  0  0  0  0  0  0  0  0  0
   -0.2911   -1.5317    0.0000 C   0  0  0  0  0  0  0  0  0  0  0  0
    1.1683   -1.8780    0.0000 C   0  0  0  0  0  0  0  0  0  0  0  0
    1.5982   -3.3151    0.0000 O   0  0  0  0  0  0  0  0  0  0  0  0
    2.0736   -0.6699    0.0000 C   0  0  0  0  0  0  0  0  0  0  0  0
    2.7928   -1.9862    0.0000 C   0  0  0  0  0  0  0  0  0  0  0  0
    0.5860   -0.4780    0.0000 C   0  0  0  0  0  0  0  0  0  0  0  0
   -0.0853   -0.9080    0.0000 O   0  0  0  0  0  0  0  0  0  0  0  0
    0.3087    0.9962    0.0000 C   0  0  0  0  0  0  0  0  0  0  0  0
   -1.0469    1.6383    0.0000 C   0  0  0  0  0  0  0  0  0  0  0  0
   -1.1685    3.1334    0.0000 C   0  0  0  0  0  0  0  0  0  0  0  0
   -2.5241    3.7756    0.0000 C   0  0  0  0  0  0  0  0  0  0  0  0
   -2.6457    5.2707    0.0000 C   0  0  0  0  0  0  0  0  0  0  0  0
   -3.7580    2.9227    0.0000 C   0  0  0  0  0  0  0  0  0  0  0  0
    1.6250    1.7154    0.0000 C   0  0  0  0  0  0  0  0  0  0  0  0
    2.7158    0.6857    0.0000 C   0  0  0  0  0  0  0  0  0  0  0  0
    4.1900    0.9630    0.0000 C   0  0  0  0  0  0  0  0  0  0  0  0
    3.9127    2.4371    0.0000 C   0  0  0  0  0  0  0  0  0  0  0  0
    4.4672   -0.5112    0.0000 C   0  0  0  0  0  0  0  0  0  0  0  0
    5.6641    1.2402    0.0000 O   0  0  0  0  0  0  0  0  0  0  0  0
   -0.7210   -0.0946    0.0000 C   0  0  0  0  0  0  0  0  0  0  0  0
   -2.1804    0.2517    0.0000 O   0  0  0  0  0  0  0  0  0  0  0  0
  1  2  1  0
  2  3  1  0
  3  4  1  6
  3  5  1  0
  5  6  2  0
  5  7  1  0
  7  8  2  0
  8  9  1  0
  8 10  1  0
 10 11  1  1
 10 12  1  0
 12 13  2  0
 12 14  1  0
 14 15  1  1
 15 16  1  0
 16 17  2  0
 17 18  1  0
 17 19  1  0
 14 20  1  0
 20 21  1  0
 21 22  1  1
 22 23  1  0
 22 24  1  0
 22 25  1  0
 14 26  1  0
 26 27  2  0
 26  7  1  0
 21 10  1  0
M  END
