
     RDKit          2D

 27 29  0  0  0  0  0  0  0  0999 V2000
    5.1050   -4.3652    0.0000 C   0  0  0  0  0  0  0  0  0  0  0  0
    4.2575   -3.1276    0.0000 C   0  0  0  0  0  0  0  0  0  0  0  0
    4.9055   -1.7748    0.0000 C   0  0  0  0  0  0  0  0  0  0  0  0
    6.1252   -2.6479    0.0000 C   0  0  0  0  0  0  0  0  0  0  0  0
    3.4607   -1.3715    0.0000 C   0  0  0  0  0  0  0  0  0  0  0  0
    3.0875    0.0813    0.0000 C   0  0  0  0  0  0  0  0  0  0  0  0
    1.7215   -0.5385    0.0000 C   0  0  0  0  0  0  0  0  0  0  0  0
    0.5018    0.3346    0.0000 C   0  0  0  0  0  0  0  0  0  0  0  0
   -0.8642   -0.2852    0.0000 N   0  0  0  0  0  0  0  0  0  0  0  0
   -2.0839    0.5879    0.0000 C   0  0  0  0  0  0  0  0  0  0  0  0
   -3.4499   -0.0319    0.0000 C   0  0  0  0  0  0  0  0  0  0  0  0
   -3.5961   -1.5248    0.0000 C   0  0  0  0  0  0  0  0  0  0  0  0
   -4.9621   -2.1446    0.0000 C   0  0  0  0  0  0  0  0  0  0  0  0
   -6.1818   -1.2715    0.0000 C   0  0  0  0  0  0  0  0  0  0  0  0
   -7.6468   -1.5938    0.0000 O   0  0  0  0  0  0  0  0  0  0  0  0
   -8.4060   -0.3001    0.0000 C   0  0  0  0  0  0  0  0  0  0  0  0
   -7.4102    0.8217    0.0000 O   0  0  0  0  0  0  0  0  0  0  0  0
   -6.0356    0.2213    0.0000 C   0  0  0  0  0  0  0  0  0  0  0  0
   -4.6696    0.8411    0.0000 C   0  0  0  0  0  0  0  0  0  0  0  0
    2.2399    1.3189    0.0000 C   0  0  0  0  0  0  0  0  0  0  0  0
    2.8879    2.6717    0.0000 C   0  0  0  0  0  0  0  0  0  0  0  0
    2.0404    3.9093    0.0000 C   0  0  0  0  0  0  0  0  0  0  0  0
    2.6884    5.2621    0.0000 C   0  0  0  0  0  0  0  0  0  0  0  0
    0.5448    3.7941    0.0000 C   0  0  0  0  0  0  0  0  0  0  0  0
    4.1591    1.1309    0.0000 C   0  0  0  0  0  0  0  0  0  0  0  0
    5.6039    0.7277    0.0000 C   0  0  0  0  0  0  0  0  0  0  0  0
    5.9771   -0.7252    0.0000 O   0  0  0  0  0  0  0  0  0  0  0  0
  1  2  1  0
  2  3  1  0
  3  4  1  1
  3  5  1  0
  5  6  1  0
  6  7  1  6
  7  8  1  0
  8  9  1  0
  9 10  1  0
 10 11  1  0
 11 12  2  0
 12 13  1  0
 13 14  2  0
 14 15  1  0
 15 16  1  0
 16 17  1  0
 17 18  1  0
 18 19  2  0
  6 20  1  0
 20 21  1  0
 21 22  1  0
 22 23  1  0
 22 24  1  0
  6 25  1  0
 25 26  1  0
 26 27  1  0
 27  3  1  0
 19 11  1  0
 18 14  1  0
M  END
