
     RDKit          2D

 27 30  0  0  0  0  0  0  0  0999 V2000
    2.0349    5.0999    0.0000 C   0  0  0  0  0  0  0  0  0  0  0  0
    0.9368    4.0781    0.0000 O   0  0  0  0  0  0  0  0  0  0  0  0
    1.2727    2.6162    0.0000 C   0  0  0  0  0  0  0  0  0  0  0  0
    2.7066    2.1761    0.0000 C   0  0  0  0  0  0  0  0  0  0  0  0
    3.0425    0.7142    0.0000 C   0  0  0  0  0  0  0  0  0  0  0  0
    1.9444   -0.3076    0.0000 C   0  0  0  0  0  0  0  0  0  0  0  0
    0.5104    0.1325    0.0000 C   0  0  0  0  0  0  0  0  0  0  0  0
    0.1745    1.5944    0.0000 C   0  0  0  0  0  0  0  0  0  0  0  0
   -1.2595    2.0345    0.0000 O   0  0  0  0  0  0  0  0  0  0  0  0
   -1.5953    3.4964    0.0000 C   0  0  0  0  0  0  0  0  0  0  0  0
   -0.7876   -0.6194    0.0000 C   0  0  0  0  0  0  0  0  0  0  0  0
   -1.0091   -2.1029    0.0000 C   0  0  0  0  0  0  0  0  0  0  0  0
   -2.4046   -2.6529    0.0000 C   0  0  0  0  0  0  0  0  0  0  0  0
   -3.5787   -1.7194    0.0000 C   0  0  0  0  0  0  0  0  0  0  0  0
   -4.9742   -2.2694    0.0000 O   0  0  0  0  0  0  0  0  0  0  0  0
   -3.3572   -0.2358    0.0000 C   0  0  0  0  0  0  0  0  0  0  0  0
   -4.5313    0.6978    0.0000 O   0  0  0  0  0  0  0  0  0  0  0  0
   -5.9268    0.1478    0.0000 C   0  0  0  0  0  0  0  0  0  0  0  0
   -1.9617    0.3142    0.0000 C   0  0  0  0  0  0  0  0  0  0  0  0
   -2.0914    1.6579    0.0000 O   0  0  0  0  0  0  0  0  0  0  0  0
    0.0128   -3.2011    0.0000 C   0  0  0  0  0  0  0  0  0  0  0  0
    1.5084   -3.0869    0.0000 C   0  0  0  0  0  0  0  0  0  0  0  0
    2.2802   -1.7696    0.0000 C   0  0  0  0  0  0  0  0  0  0  0  0
    3.7142   -2.2097    0.0000 N   0  0  0  0  0  0  0  0  0  0  0  0
    4.0501   -3.6716    0.0000 C   0  0  0  0  0  0  0  0  0  0  0  0
    4.8123   -1.1878    0.0000 C   0  0  0  0  0  0  0  0  0  0  0  0
    4.4765    0.2741    0.0000 C   0  0  0  0  0  0  0  0  0  0  0  0
  1  2  1  0
  2  3  1  0
  3  4  2  0
  4  5  1  0
  5  6  2  0
  6  7  1  0
  7  8  2  0
  8  9  1  0
  9 10  1  0
  7 11  1  0
 11 12  2  0
 12 13  1  0
 13 14  2  0
 14 15  1  0
 14 16  1  0
 16 17  1  0
 17 18  1  0
 16 19  2  0
 19 20  1  0
 12 21  1  0
 21 22  1  0
 23 22  1  1
 23 24  1  0
 24 25  1  0
 24 26  1  0
 26 27  1  0
  8  3  1  0
 19 11  1  0
 27  5  1  0
 23  6  1  0
M  END
