
     RDKit          2D

 27 29  0  0  0  0  0  0  0  0999 V2000
   -0.0124   -2.1123    0.0000 C   0  0  0  0  0  0  0  0  0  0  0  0
   -1.4583   -2.5114    0.0000 C   0  0  0  0  0  0  0  0  0  0  0  0
   -0.8142   -3.8660    0.0000 C   0  0  0  0  0  0  0  0  0  0  0  0
   -2.6806   -3.3809    0.0000 C   0  0  0  0  0  0  0  0  0  0  0  0
   -4.0447   -2.7572    0.0000 C   0  0  0  0  0  0  0  0  0  0  0  0
   -4.1866   -1.2639    0.0000 C   0  0  0  0  0  0  0  0  0  0  0  0
   -2.9644   -0.3944    0.0000 C   0  0  0  0  0  0  0  0  0  0  0  0
   -4.3286    0.2294    0.0000 C   0  0  0  0  0  0  0  0  0  0  0  0
   -1.6002   -1.0181    0.0000 C   0  0  0  0  0  0  0  0  0  0  0  0
   -0.3780   -0.1486    0.0000 C   0  0  0  0  0  0  0  0  0  0  0  0
    0.9862   -0.7723    0.0000 O   0  0  0  0  0  0  0  0  0  0  0  0
    2.2085    0.0973    0.0000 C   0  0  0  0  0  0  0  0  0  0  0  0
    2.0665    1.5905    0.0000 O   0  0  0  0  0  0  0  0  0  0  0  0
    3.5726   -0.5265    0.0000 C   0  0  0  0  0  0  0  0  0  0  0  0
    4.7949    0.3431    0.0000 C   0  0  0  0  0  0  0  0  0  0  0  0
    6.1590   -0.2807    0.0000 C   0  0  0  0  0  0  0  0  0  0  0  0
    7.3813    0.5889    0.0000 C   0  0  0  0  0  0  0  0  0  0  0  0
    8.7455   -0.0349    0.0000 C   0  0  0  0  0  0  0  0  0  0  0  0
    9.9677    0.8347    0.0000 O   0  0  0  0  0  0  0  0  0  0  0  0
   -0.5199    1.3447    0.0000 C   0  0  0  0  0  0  0  0  0  0  0  0
   -1.8841    1.9684    0.0000 C   0  0  0  0  0  0  0  0  0  0  0  0
   -2.3333    3.3996    0.0000 C   0  0  0  0  0  0  0  0  0  0  0  0
   -3.8333    3.4145    0.0000 O   0  0  0  0  0  0  0  0  0  0  0  0
   -4.3110    1.9926    0.0000 C   0  0  0  0  0  0  0  0  0  0  0  0
   -5.7421    1.5433    0.0000 O   0  0  0  0  0  0  0  0  0  0  0  0
   -3.1063    1.0989    0.0000 C   0  0  0  0  0  0  0  0  0  0  0  0
   -1.6844    0.6212    0.0000 O   0  0  0  0  0  0  0  0  0  0  0  0
  1  2  1  0
  2  3  1  0
  2  4  1  0
  4  5  1  0
  5  6  1  0
  6  7  1  0
  7  8  1  6
  7  9  1  0
  9 10  1  0
 10 11  1  1
 11 12  1  0
 12 13  2  0
 12 14  1  0
 14 15  2  0
 15 16  1  0
 16 17  2  0
 17 18  1  0
 18 19  2  0
 10 20  1  0
 20 21  2  0
 21 22  1  0
 22 23  1  0
 23 24  1  0
 24 25  2  0
 24 26  1  0
 26 27  1  1
  9  2  1  6
 26 21  1  0
 26  7  1  0
M  END
