
     RDKit          2D

 27 30  0  0  0  0  0  0  0  0999 V2000
   -7.9183   -1.4611    0.0000 C   0  0  0  0  0  0  0  0  0  0  0  0
   -6.5107   -0.9428    0.0000 C   0  0  0  0  0  0  0  0  0  0  0  0
   -6.2558    0.5354    0.0000 O   0  0  0  0  0  0  0  0  0  0  0  0
   -5.3580   -1.9027    0.0000 N   0  0  0  0  0  0  0  0  0  0  0  0
   -3.9504   -1.3844    0.0000 C   0  0  0  0  0  0  0  0  0  0  0  0
   -2.7037   -2.2185    0.0000 C   0  0  0  0  0  0  0  0  0  0  0  0
   -1.5252   -1.2906    0.0000 O   0  0  0  0  0  0  0  0  0  0  0  0
   -2.0435    0.1170    0.0000 C   0  0  0  0  0  0  0  0  0  0  0  0
   -3.5424    0.0591    0.0000 C   0  0  0  0  0  0  0  0  0  0  0  0
   -4.0607    1.4667    0.0000 O   0  0  0  0  0  0  0  0  0  0  0  0
   -2.8821    2.3946    0.0000 C   0  0  0  0  0  0  0  0  0  0  0  0
   -1.6354    1.5605    0.0000 C   0  0  0  0  0  0  0  0  0  0  0  0
   -0.2278    2.0788    0.0000 N   0  0  0  0  0  0  0  0  0  0  0  0
    0.1802    3.5222    0.0000 N   0  0  0  0  0  0  0  0  0  0  0  0
    1.6791    3.5802    0.0000 N   0  0  0  0  0  0  0  0  0  0  0  0
    2.1974    2.1725    0.0000 N   0  0  0  0  0  0  0  0  0  0  0  0
    1.0189    1.2446    0.0000 C   0  0  0  0  0  0  0  0  0  0  0  0
    1.0768   -0.2542    0.0000 O   0  0  0  0  0  0  0  0  0  0  0  0
    2.4039   -0.9535    0.0000 C   0  0  0  0  0  0  0  0  0  0  0  0
    2.4618   -2.4524    0.0000 C   0  0  0  0  0  0  0  0  0  0  0  0
    3.7889   -3.1516    0.0000 C   0  0  0  0  0  0  0  0  0  0  0  0
    5.0580   -2.3520    0.0000 C   0  0  0  0  0  0  0  0  0  0  0  0
    5.0000   -0.8531    0.0000 C   0  0  0  0  0  0  0  0  0  0  0  0
    6.2691   -0.0535    0.0000 N   0  0  0  0  0  0  0  0  0  0  0  0
    7.5961   -0.7527    0.0000 C   0  0  0  0  0  0  0  0  0  0  0  0
    6.2111    1.4454    0.0000 C   0  0  0  0  0  0  0  0  0  0  0  0
    3.6729   -0.1539    0.0000 C   0  0  0  0  0  0  0  0  0  0  0  0
  1  2  1  0
  2  3  2  0
  2  4  1  0
  5  4  1  1
  5  6  1  0
  6  7  1  0
  8  7  1  6
  8  9  1  0
  9 10  1  1
 10 11  1  0
 11 12  1  0
 12 13  1  6
 13 14  1  0
 14 15  2  0
 15 16  1  0
 16 17  2  0
 17 18  1  0
 18 19  1  0
 19 20  2  0
 20 21  1  0
 21 22  2  0
 22 23  1  0
 23 24  1  0
 24 25  1  0
 24 26  1  0
 23 27  2  0
  9  5  1  0
 17 13  1  0
 27 19  1  0
 12  8  1  0
M  END
