
     RDKit          2D

 27 29  0  0  0  0  0  0  0  0999 V2000
    7.6617    1.4845    0.0000 C   0  0  0  0  0  0  0  0  0  0  0  0
    6.3146    2.1443    0.0000 C   0  0  0  0  0  0  0  0  0  0  0  0
    6.2124    3.6408    0.0000 C   0  0  0  0  0  0  0  0  0  0  0  0
    5.0697    1.3075    0.0000 C   0  0  0  0  0  0  0  0  0  0  0  0
    5.1719   -0.1890    0.0000 C   0  0  0  0  0  0  0  0  0  0  0  0
    3.9270   -1.0258    0.0000 C   0  0  0  0  0  0  0  0  0  0  0  0
    2.5799   -0.3661    0.0000 C   0  0  0  0  0  0  0  0  0  0  0  0
    1.3350   -1.2029    0.0000 N   0  0  0  0  0  0  0  0  0  0  0  0
    1.4372   -2.6994    0.0000 C   0  0  0  0  0  0  0  0  0  0  0  0
    2.7843   -3.3591    0.0000 O   0  0  0  0  0  0  0  0  0  0  0  0
    0.1923   -3.5362    0.0000 N   0  0  0  0  0  0  0  0  0  0  0  0
   -1.1549   -2.8765    0.0000 C   0  0  0  0  0  0  0  0  0  0  0  0
   -2.5465   -3.4361    0.0000 C   0  0  0  0  0  0  0  0  0  0  0  0
   -3.5089   -2.2855    0.0000 C   0  0  0  0  0  0  0  0  0  0  0  0
   -2.7119   -1.0147    0.0000 N   0  0  0  0  0  0  0  0  0  0  0  0
   -3.2716    0.3770    0.0000 C   0  0  0  0  0  0  0  0  0  0  0  0
   -2.3462    1.5575    0.0000 O   0  0  0  0  0  0  0  0  0  0  0  0
   -4.7567    0.5881    0.0000 C   0  0  0  0  0  0  0  0  0  0  0  0
   -5.3163    1.9798    0.0000 C   0  0  0  0  0  0  0  0  0  0  0  0
   -6.8014    2.1910    0.0000 C   0  0  0  0  0  0  0  0  0  0  0  0
   -7.7268    1.0104    0.0000 O   0  0  0  0  0  0  0  0  0  0  0  0
   -7.3611    3.5826    0.0000 O   0  0  0  0  0  0  0  0  0  0  0  0
   -1.2571   -1.3799    0.0000 C   0  0  0  0  0  0  0  0  0  0  0  0
   -0.0122   -0.5432    0.0000 C   0  0  0  0  0  0  0  0  0  0  0  0
   -0.1144    0.9534    0.0000 O   0  0  0  0  0  0  0  0  0  0  0  0
    2.4776    1.1304    0.0000 C   0  0  0  0  0  0  0  0  0  0  0  0
    3.7225    1.9672    0.0000 C   0  0  0  0  0  0  0  0  0  0  0  0
  1  2  1  0
  2  3  1  0
  2  4  1  0
  4  5  2  0
  5  6  1  0
  6  7  2  0
  7  8  1  0
  8  9  1  0
  9 10  2  0
  9 11  1  0
 11 12  1  0
 12 13  1  6
 13 14  1  0
 14 15  1  0
 15 16  1  0
 16 17  2  0
 16 18  1  0
 18 19  1  0
 19 20  1  0
 20 21  2  0
 20 22  1  0
 23 15  1  6
 23 24  1  0
 24 25  2  0
  7 26  1  0
 26 27  2  0
 27  4  1  0
 24  8  1  0
 23 12  1  0
M  END
