
     RDKit          2D

 27 29  0  0  0  0  0  0  0  0999 V2000
   -9.5231    1.1750    0.0000 C   0  0  0  0  0  0  0  0  0  0  0  0
   -8.5119    0.0670    0.0000 O   0  0  0  0  0  0  0  0  0  0  0  0
   -7.0468    0.3887    0.0000 C   0  0  0  0  0  0  0  0  0  0  0  0
   -6.5929    1.8184    0.0000 C   0  0  0  0  0  0  0  0  0  0  0  0
   -5.1278    2.1401    0.0000 C   0  0  0  0  0  0  0  0  0  0  0  0
   -4.1166    1.0321    0.0000 C   0  0  0  0  0  0  0  0  0  0  0  0
   -2.6515    1.3538    0.0000 C   0  0  0  0  0  0  0  0  0  0  0  0
   -1.6404    0.2458    0.0000 C   0  0  0  0  0  0  0  0  0  0  0  0
   -0.1753    0.5675    0.0000 N   0  0  0  0  0  0  0  0  0  0  0  0
    0.8359   -0.5404    0.0000 C   0  0  0  0  0  0  0  0  0  0  0  0
    0.3819   -1.9701    0.0000 O   0  0  0  0  0  0  0  0  0  0  0  0
    2.3010   -0.2187    0.0000 C   0  0  0  0  0  0  0  0  0  0  0  0
    3.3121   -1.3267    0.0000 C   0  0  0  0  0  0  0  0  0  0  0  0
    4.7772   -1.0050    0.0000 N   0  0  0  0  0  0  0  0  0  0  0  0
    5.8986   -2.0012    0.0000 C   0  0  0  0  0  0  0  0  0  0  0  0
    5.7518   -3.4940    0.0000 S   0  0  0  0  0  0  0  0  0  0  0  0
    7.1926   -1.2425    0.0000 O   0  0  0  0  0  0  0  0  0  0  0  0
    6.8709    0.2226    0.0000 C   0  0  0  0  0  0  0  0  0  0  0  0
    7.7444    1.4420    0.0000 C   0  0  0  0  0  0  0  0  0  0  0  0
    7.1251    2.8082    0.0000 C   0  0  0  0  0  0  0  0  0  0  0  0
    5.6323    2.9550    0.0000 C   0  0  0  0  0  0  0  0  0  0  0  0
    4.7588    1.7356    0.0000 C   0  0  0  0  0  0  0  0  0  0  0  0
    5.3781    0.3694    0.0000 C   0  0  0  0  0  0  0  0  0  0  0  0
   -4.5706   -0.3976    0.0000 C   0  0  0  0  0  0  0  0  0  0  0  0
   -6.0357   -0.7193    0.0000 C   0  0  0  0  0  0  0  0  0  0  0  0
   -6.4896   -2.1489    0.0000 O   0  0  0  0  0  0  0  0  0  0  0  0
   -5.4785   -3.2569    0.0000 C   0  0  0  0  0  0  0  0  0  0  0  0
  1  2  1  0
  2  3  1  0
  3  4  2  0
  4  5  1  0
  5  6  2  0
  6  7  1  0
  7  8  1  0
  8  9  1  0
  9 10  1  0
 10 11  2  0
 10 12  1  0
 12 13  1  0
 13 14  1  0
 14 15  1  0
 15 16  2  0
 15 17  1  0
 17 18  1  0
 18 19  2  0
 19 20  1  0
 20 21  2  0
 21 22  1  0
 22 23  2  0
  6 24  1  0
 24 25  2  0
 25 26  1  0
 26 27  1  0
 25  3  1  0
 23 14  1  0
 23 18  1  0
M  END
