
     RDKit          2D

 27 28  0  0  0  0  0  0  0  0999 V2000
    0.9042   -2.8863    0.0000 C   0  0  0  0  0  0  0  0  0  0  0  0
    0.9851   -1.3884    0.0000 C   0  0  0  0  0  0  0  0  0  0  0  0
   -0.2716   -0.5695    0.0000 C   0  0  0  0  0  0  0  0  0  0  0  0
   -1.6092   -1.2484    0.0000 C   0  0  0  0  0  0  0  0  0  0  0  0
   -2.8659   -0.4295    0.0000 N   0  0  0  0  0  0  0  0  0  0  0  0
   -4.2035   -1.1084    0.0000 C   0  0  0  0  0  0  0  0  0  0  0  0
   -4.2844   -2.6062    0.0000 O   0  0  0  0  0  0  0  0  0  0  0  0
   -5.4603   -0.2895    0.0000 C   0  0  0  0  0  0  0  0  0  0  0  0
   -5.3794    1.2083    0.0000 C   0  0  0  0  0  0  0  0  0  0  0  0
   -6.6361    2.0272    0.0000 C   0  0  0  0  0  0  0  0  0  0  0  0
   -7.9737    1.3483    0.0000 C   0  0  0  0  0  0  0  0  0  0  0  0
   -8.0546   -0.1495    0.0000 C   0  0  0  0  0  0  0  0  0  0  0  0
   -6.7978   -0.9684    0.0000 C   0  0  0  0  0  0  0  0  0  0  0  0
   -2.7851    1.0683    0.0000 C   0  0  0  0  0  0  0  0  0  0  0  0
   -1.4475    1.7472    0.0000 C   0  0  0  0  0  0  0  0  0  0  0  0
   -0.1908    0.9283    0.0000 C   0  0  0  0  0  0  0  0  0  0  0  0
    1.1468    1.6072    0.0000 C   0  0  0  0  0  0  0  0  0  0  0  0
    2.4035    0.7883    0.0000 C   0  0  0  0  0  0  0  0  0  0  0  0
    2.3227   -0.7095    0.0000 O   0  0  0  0  0  0  0  0  0  0  0  0
    3.7411    1.4672    0.0000 N   0  0  0  0  0  0  0  0  0  0  0  0
    4.9978    0.6483    0.0000 C   0  0  0  0  0  0  0  0  0  0  0  0
    4.9170   -0.8495    0.0000 C   0  0  0  0  0  0  0  0  0  0  0  0
    6.1737   -1.6685    0.0000 O   0  0  0  0  0  0  0  0  0  0  0  0
    6.3354    1.3272    0.0000 C   0  0  0  0  0  0  0  0  0  0  0  0
    7.5921    0.5083    0.0000 C   0  0  0  0  0  0  0  0  0  0  0  0
    8.9297    1.1872    0.0000 C   0  0  0  0  0  0  0  0  0  0  0  0
    7.5113   -0.9896    0.0000 C   0  0  0  0  0  0  0  0  0  0  0  0
  1  2  1  0
  3  2  1  1
  3  4  1  0
  4  5  1  0
  5  6  1  0
  6  7  2  0
  6  8  1  0
  8  9  2  0
  9 10  1  0
 10 11  2  0
 11 12  1  0
 12 13  2  0
  5 14  1  0
 14 15  1  0
 15 16  1  0
 16 17  1  1
 17 18  1  0
 18 19  2  0
 18 20  1  0
 20 21  1  0
 21 22  1  6
 22 23  1  0
 21 24  1  0
 24 25  1  0
 25 26  1  0
 25 27  1  0
 16  3  1  0
 13  8  1  0
M  END
