
     RDKit          2D

 28 31  0  0  0  0  0  0  0  0999 V2000
   -6.1493   -3.4023    0.0000 C   0  0  0  0  0  0  0  0  0  0  0  0
   -5.8375   -1.9351    0.0000 O   0  0  0  0  0  0  0  0  0  0  0  0
   -4.4110   -1.4715    0.0000 C   0  0  0  0  0  0  0  0  0  0  0  0
   -3.2962   -2.4751    0.0000 O   0  0  0  0  0  0  0  0  0  0  0  0
   -4.0992   -0.0042    0.0000 C   0  0  0  0  0  0  0  0  0  0  0  0
   -5.1029    1.1104    0.0000 C   0  0  0  0  0  0  0  0  0  0  0  0
   -4.3530    2.4095    0.0000 C   0  0  0  0  0  0  0  0  0  0  0  0
   -2.8858    2.0977    0.0000 C   0  0  0  0  0  0  0  0  0  0  0  0
   -1.7711    3.1015    0.0000 C   0  0  0  0  0  0  0  0  0  0  0  0
   -1.8820    0.9831    0.0000 C   0  0  0  0  0  0  0  0  0  0  0  0
   -0.3902    1.1399    0.0000 O   0  0  0  0  0  0  0  0  0  0  0  0
    0.4915   -0.0736    0.0000 C   0  0  0  0  0  0  0  0  0  0  0  0
   -0.1185   -1.4439    0.0000 O   0  0  0  0  0  0  0  0  0  0  0  0
    1.9833    0.0833    0.0000 C   0  0  0  0  0  0  0  0  0  0  0  0
    2.8650   -1.1302    0.0000 C   0  0  0  0  0  0  0  0  0  0  0  0
    4.3568   -0.9733    0.0000 C   0  0  0  0  0  0  0  0  0  0  0  0
    5.2385   -2.1868    0.0000 C   0  0  0  0  0  0  0  0  0  0  0  0
    6.7303   -2.0299    0.0000 C   0  0  0  0  0  0  0  0  0  0  0  0
    7.3403   -0.6595    0.0000 C   0  0  0  0  0  0  0  0  0  0  0  0
    6.4586    0.5539    0.0000 C   0  0  0  0  0  0  0  0  0  0  0  0
    4.9668    0.3971    0.0000 C   0  0  0  0  0  0  0  0  0  0  0  0
    4.0851    1.6105    0.0000 O   0  0  0  0  0  0  0  0  0  0  0  0
    2.5933    1.4537    0.0000 C   0  0  0  0  0  0  0  0  0  0  0  0
    1.7116    2.6671    0.0000 O   0  0  0  0  0  0  0  0  0  0  0  0
   -2.6319   -0.3160    0.0000 C   0  0  0  0  0  0  0  0  0  0  0  0
   -2.7289    0.6059    0.0000 C   0  0  0  0  0  0  0  0  0  0  0  0
   -1.2298    0.5536    0.0000 C   0  0  0  0  0  0  0  0  0  0  0  0
   -1.9339   -0.6660    0.0000 C   0  0  0  0  0  0  0  0  0  0  0  0
  1  2  1  0
  2  3  1  0
  3  4  2  0
  5  3  1  1
  5  6  1  0
  6  7  1  0
  7  8  1  0
  8  9  1  1
  8 10  1  0
 10 11  1  1
 11 12  1  0
 12 13  2  0
 12 14  1  0
 14 15  2  0
 15 16  1  0
 16 17  2  0
 17 18  1  0
 18 19  2  0
 19 20  1  0
 20 21  2  0
 21 22  1  0
 22 23  1  0
 23 24  2  0
 10 25  1  0
  8 26  1  0
 26 27  1  0
 26 28  1  0
 25  5  1  0
 26  5  1  0
 23 14  1  0
 21 16  1  0
M  END
