
     RDKit          2D

 28 30  0  0  0  0  0  0  0  0999 V2000
   -6.0799    3.3145    0.0000 C   0  0  0  0  0  0  0  0  0  0  0  0
   -6.1518    1.8162    0.0000 O   0  0  0  0  0  0  0  0  0  0  0  0
   -4.8903    1.0047    0.0000 C   0  0  0  0  0  0  0  0  0  0  0  0
   -3.5568    1.6915    0.0000 C   0  0  0  0  0  0  0  0  0  0  0  0
   -2.2952    0.8800    0.0000 C   0  0  0  0  0  0  0  0  0  0  0  0
   -2.3672   -0.6182    0.0000 C   0  0  0  0  0  0  0  0  0  0  0  0
   -1.1057   -1.4297    0.0000 C   0  0  0  0  0  0  0  0  0  0  0  0
    0.2279   -0.7429    0.0000 C   0  0  0  0  0  0  0  0  0  0  0  0
    1.5673   -1.4181    0.0000 O   0  0  0  0  0  0  0  0  0  0  0  0
    2.6234   -0.3528    0.0000 C   0  0  0  0  0  0  0  0  0  0  0  0
    4.1216   -0.4248    0.0000 C   0  0  0  0  0  0  0  0  0  0  0  0
    4.9331    0.8367    0.0000 C   0  0  0  0  0  0  0  0  0  0  0  0
    6.4314    0.7647    0.0000 O   0  0  0  0  0  0  0  0  0  0  0  0
    7.1182   -0.5688    0.0000 S   0  0  0  0  0  0  0  0  0  0  0  0
    7.8050   -1.9024    0.0000 C   0  0  0  0  0  0  0  0  0  0  0  0
    5.7846   -1.2556    0.0000 O   0  0  0  0  0  0  0  0  0  0  0  0
    8.4517    0.1180    0.0000 O   0  0  0  0  0  0  0  0  0  0  0  0
    4.2463    2.1702    0.0000 C   0  0  0  0  0  0  0  0  0  0  0  0
    2.7481    2.2422    0.0000 C   0  0  0  0  0  0  0  0  0  0  0  0
    1.9366    0.9807    0.0000 C   0  0  0  0  0  0  0  0  0  0  0  0
    0.4561    0.7396    0.0000 C   0  0  0  0  0  0  0  0  0  0  0  0
   -0.6092    1.7956    0.0000 O   0  0  0  0  0  0  0  0  0  0  0  0
   -3.7007   -1.3050    0.0000 C   0  0  0  0  0  0  0  0  0  0  0  0
   -3.7727   -2.8033    0.0000 O   0  0  0  0  0  0  0  0  0  0  0  0
   -5.1063   -3.4901    0.0000 C   0  0  0  0  0  0  0  0  0  0  0  0
   -4.9623   -0.4936    0.0000 C   0  0  0  0  0  0  0  0  0  0  0  0
   -6.2958   -1.1803    0.0000 O   0  0  0  0  0  0  0  0  0  0  0  0
   -7.5574   -0.3689    0.0000 C   0  0  0  0  0  0  0  0  0  0  0  0
  1  2  1  0
  2  3  1  0
  3  4  2  0
  4  5  1  0
  5  6  2  0
  6  7  1  0
  7  8  2  3
  8  9  1  0
  9 10  1  0
 10 11  2  0
 11 12  1  0
 12 13  1  0
 13 14  1  0
 14 15  1  0
 14 16  2  0
 14 17  2  0
 12 18  2  0
 18 19  1  0
 19 20  2  0
 20 21  1  0
 21 22  2  0
  6 23  1  0
 23 24  1  0
 24 25  1  0
 23 26  2  0
 26 27  1  0
 27 28  1  0
 26  3  1  0
 21  8  1  0
 20 10  1  0
M  END
