
     RDKit          2D

 28 32  0  0  0  0  0  0  0  0999 V2000
    0.0229   -5.5723    0.0000 C   0  0  0  0  0  0  0  0  0  0  0  0
   -0.6857   -4.2503    0.0000 C   0  0  0  0  0  0  0  0  0  0  0  0
   -2.1850   -4.2029    0.0000 O   0  0  0  0  0  0  0  0  0  0  0  0
    0.1050   -2.9756    0.0000 O   0  0  0  0  0  0  0  0  0  0  0  0
   -0.6036   -1.6535    0.0000 C   0  0  0  0  0  0  0  0  0  0  0  0
    0.1871   -0.3788    0.0000 C   0  0  0  0  0  0  0  0  0  0  0  0
    1.6863   -0.4262    0.0000 C   0  0  0  0  0  0  0  0  0  0  0  0
    2.4770    0.8485    0.0000 C   0  0  0  0  0  0  0  0  0  0  0  0
    3.9762    0.8011    0.0000 C   0  0  0  0  0  0  0  0  0  0  0  0
    4.8958    1.9862    0.0000 C   0  0  0  0  0  0  0  0  0  0  0  0
    6.3070    1.4778    0.0000 O   0  0  0  0  0  0  0  0  0  0  0  0
    6.2596   -0.0214    0.0000 C   0  0  0  0  0  0  0  0  0  0  0  0
    4.8191   -0.4397    0.0000 C   0  0  0  0  0  0  0  0  0  0  0  0
    1.7684    2.1706    0.0000 O   0  0  0  0  0  0  0  0  0  0  0  0
    0.2692    2.2180    0.0000 C   0  0  0  0  0  0  0  0  0  0  0  0
   -0.4394    3.5401    0.0000 C   0  0  0  0  0  0  0  0  0  0  0  0
   -1.9387    3.5875    0.0000 C   0  0  0  0  0  0  0  0  0  0  0  0
   -2.7294    2.3128    0.0000 C   0  0  0  0  0  0  0  0  0  0  0  0
   -4.2057    2.0474    0.0000 C   0  0  0  0  0  0  0  0  0  0  0  0
   -5.2881    3.0859    0.0000 O   0  0  0  0  0  0  0  0  0  0  0  0
   -4.4095    0.5614    0.0000 O   0  0  0  0  0  0  0  0  0  0  0  0
   -3.0592   -0.0917    0.0000 C   0  0  0  0  0  0  0  0  0  0  0  0
   -2.1686   -1.4746    0.0000 C   0  0  0  0  0  0  0  0  0  0  0  0
   -0.6744   -1.6067    0.0000 C   0  0  0  0  0  0  0  0  0  0  0  0
   -0.3897   -3.0794    0.0000 C   0  0  0  0  0  0  0  0  0  0  0  0
   -2.0208    0.9907    0.0000 C   0  0  0  0  0  0  0  0  0  0  0  0
   -1.4543   -0.3982    0.0000 C   0  0  0  0  0  0  0  0  0  0  0  0
   -0.5215    0.9433    0.0000 C   0  0  0  0  0  0  0  0  0  0  0  0
  1  2  1  0
  2  3  2  0
  2  4  1  0
  4  5  1  0
  6  5  1  6
  6  7  1  0
  7  8  1  0
  8  9  1  1
  9 10  2  0
 10 11  1  0
 11 12  1  0
 12 13  2  0
  8 14  1  0
 14 15  1  0
 15 16  1  1
 16 17  1  0
 18 17  1  6
 18 19  1  0
 19 20  2  0
 19 21  1  0
 21 22  1  0
 22 23  1  6
 23 24  1  0
 24 25  1  6
 22 26  1  0
 26 27  1  1
 26 28  1  0
 24  6  1  0
 28  6  1  0
 13  9  1  0
 28 15  1  6
 26 18  1  0
M  END
