
     RDKit          2D

 28 31  0  0  0  0  0  0  0  0999 V2000
    8.3820   -0.2592    0.0000 C   0  0  0  0  0  0  0  0  0  0  0  0
    7.5468    0.9868    0.0000 C   0  0  0  0  0  0  0  0  0  0  0  0
    6.7116    2.2328    0.0000 C   0  0  0  0  0  0  0  0  0  0  0  0
    8.7927    1.8220    0.0000 C   0  0  0  0  0  0  0  0  0  0  0  0
    6.3008    0.1516    0.0000 C   0  0  0  0  0  0  0  0  0  0  0  0
    6.4011   -1.3450    0.0000 C   0  0  0  0  0  0  0  0  0  0  0  0
    5.1551   -2.1802    0.0000 C   0  0  0  0  0  0  0  0  0  0  0  0
    3.8088   -1.5188    0.0000 N   0  0  0  0  0  0  0  0  0  0  0  0
    3.7085   -0.0221    0.0000 C   0  0  0  0  0  0  0  0  0  0  0  0
    2.3622    0.6393    0.0000 N   0  0  0  0  0  0  0  0  0  0  0  0
    1.1163   -0.1958    0.0000 C   0  0  0  0  0  0  0  0  0  0  0  0
    1.0596   -1.6948    0.0000 C   0  0  0  0  0  0  0  0  0  0  0  0
   -0.3835   -2.1041    0.0000 O   0  0  0  0  0  0  0  0  0  0  0  0
   -1.2187   -0.8581    0.0000 C   0  0  0  0  0  0  0  0  0  0  0  0
   -0.2918    0.3213    0.0000 C   0  0  0  0  0  0  0  0  0  0  0  0
   -1.1270    1.5672    0.0000 O   0  0  0  0  0  0  0  0  0  0  0  0
   -2.5701    1.1580    0.0000 C   0  0  0  0  0  0  0  0  0  0  0  0
   -2.6267   -0.3410    0.0000 C   0  0  0  0  0  0  0  0  0  0  0  0
   -3.8727   -1.1761    0.0000 N   0  0  0  0  0  0  0  0  0  0  0  0
   -5.2190   -0.5147    0.0000 S   0  0  0  0  0  0  0  0  0  0  0  0
   -4.5575    0.8316    0.0000 O   0  0  0  0  0  0  0  0  0  0  0  0
   -5.8805   -1.8610    0.0000 O   0  0  0  0  0  0  0  0  0  0  0  0
   -6.5653    0.1468    0.0000 C   0  0  0  0  0  0  0  0  0  0  0  0
   -7.8917   -0.5536    0.0000 C   0  0  0  0  0  0  0  0  0  0  0  0
   -8.9677    0.4915    0.0000 C   0  0  0  0  0  0  0  0  0  0  0  0
   -8.3063    1.8378    0.0000 C   0  0  0  0  0  0  0  0  0  0  0  0
   -6.8215    1.6247    0.0000 S   0  0  0  0  0  0  0  0  0  0  0  0
    4.9545    0.8131    0.0000 N   0  0  0  0  0  0  0  0  0  0  0  0
  1  2  1  0
  2  3  1  0
  2  4  1  0
  2  5  1  0
  5  6  2  0
  6  7  1  0
  7  8  2  0
  8  9  1  0
  9 10  1  0
 11 10  1  1
 11 12  1  0
 12 13  1  0
 14 13  1  6
 14 15  1  0
 15 16  1  6
 16 17  1  0
 17 18  1  0
 18 19  1  1
 19 20  1  0
 20 21  2  0
 20 22  2  0
 20 23  1  0
 23 24  2  0
 24 25  1  0
 25 26  2  0
 26 27  1  0
  9 28  2  0
 28  5  1  0
 15 11  1  0
 27 23  1  0
 18 14  1  0
M  END
