
     RDKit          2D

 28 30  0  0  0  0  0  0  0  0999 V2000
   -9.6257    2.7725    0.0000 C   0  0  0  0  0  0  0  0  0  0  0  0
   -9.5901    1.2729    0.0000 O   0  0  0  0  0  0  0  0  0  0  0  0
   -8.2736    0.5539    0.0000 C   0  0  0  0  0  0  0  0  0  0  0  0
   -6.9928    1.3345    0.0000 C   0  0  0  0  0  0  0  0  0  0  0  0
   -5.6763    0.6155    0.0000 C   0  0  0  0  0  0  0  0  0  0  0  0
   -5.6407   -0.8840    0.0000 C   0  0  0  0  0  0  0  0  0  0  0  0
   -4.3243   -1.6030    0.0000 C   0  0  0  0  0  0  0  0  0  0  0  0
   -3.0434   -0.8224    0.0000 C   0  0  0  0  0  0  0  0  0  0  0  0
   -1.7269   -1.5414    0.0000 N   0  0  0  0  0  0  0  0  0  0  0  0
   -0.4460   -0.7608    0.0000 C   0  0  0  0  0  0  0  0  0  0  0  0
   -0.4816    0.7388    0.0000 O   0  0  0  0  0  0  0  0  0  0  0  0
    0.8704   -1.4798    0.0000 C   0  0  0  0  0  0  0  0  0  0  0  0
    2.1513   -0.6992    0.0000 C   0  0  0  0  0  0  0  0  0  0  0  0
    3.4678   -1.4182    0.0000 C   0  0  0  0  0  0  0  0  0  0  0  0
    3.5034   -2.9177    0.0000 C   0  0  0  0  0  0  0  0  0  0  0  0
    4.7487   -0.6376    0.0000 C   0  0  0  0  0  0  0  0  0  0  0  0
    6.0651   -1.3565    0.0000 C   0  0  0  0  0  0  0  0  0  0  0  0
    7.3460   -0.5759    0.0000 C   0  0  0  0  0  0  0  0  0  0  0  0
    7.3104    0.9236    0.0000 C   0  0  0  0  0  0  0  0  0  0  0  0
    8.5913    1.7042    0.0000 O   0  0  0  0  0  0  0  0  0  0  0  0
    9.9078    0.9853    0.0000 C   0  0  0  0  0  0  0  0  0  0  0  0
    5.9940    1.6426    0.0000 C   0  0  0  0  0  0  0  0  0  0  0  0
    4.7131    0.8620    0.0000 C   0  0  0  0  0  0  0  0  0  0  0  0
    3.3966    1.5810    0.0000 O   0  0  0  0  0  0  0  0  0  0  0  0
    2.1157    0.8004    0.0000 C   0  0  0  0  0  0  0  0  0  0  0  0
    0.7993    1.5194    0.0000 O   0  0  0  0  0  0  0  0  0  0  0  0
   -6.9216   -1.6646    0.0000 C   0  0  0  0  0  0  0  0  0  0  0  0
   -8.2381   -0.9457    0.0000 C   0  0  0  0  0  0  0  0  0  0  0  0
  1  2  1  0
  2  3  1  0
  3  4  2  0
  4  5  1  0
  5  6  2  0
  6  7  1  0
  7  8  1  0
  8  9  1  0
  9 10  1  0
 10 11  2  0
 10 12  1  0
 12 13  1  0
 13 14  2  0
 14 15  1  0
 14 16  1  0
 16 17  2  0
 17 18  1  0
 18 19  2  0
 19 20  1  0
 20 21  1  0
 19 22  1  0
 22 23  2  0
 23 24  1  0
 24 25  1  0
 25 26  2  0
  6 27  1  0
 27 28  2  0
 28  3  1  0
 25 13  1  0
 23 16  1  0
M  END
