
     RDKit          2D

 28 30  0  0  0  0  0  0  0  0999 V2000
    5.6297   -3.8246    0.0000 C   0  0  0  0  0  0  0  0  0  0  0  0
    4.3036   -3.1234    0.0000 O   0  0  0  0  0  0  0  0  0  0  0  0
    4.2478   -1.6245    0.0000 C   0  0  0  0  0  0  0  0  0  0  0  0
    5.5181   -0.8267    0.0000 O   0  0  0  0  0  0  0  0  0  0  0  0
    2.9218   -0.9233    0.0000 C   0  0  0  0  0  0  0  0  0  0  0  0
    1.6516   -1.7211    0.0000 C   0  0  0  0  0  0  0  0  0  0  0  0
    0.3255   -1.0200    0.0000 O   0  0  0  0  0  0  0  0  0  0  0  0
    0.2697    0.4790    0.0000 C   0  0  0  0  0  0  0  0  0  0  0  0
   -1.0563    1.1802    0.0000 O   0  0  0  0  0  0  0  0  0  0  0  0
   -2.3265    0.3824    0.0000 C   0  0  0  0  0  0  0  0  0  0  0  0
   -3.6526    1.0835    0.0000 O   0  0  0  0  0  0  0  0  0  0  0  0
   -4.9228    0.2857    0.0000 C   0  0  0  0  0  0  0  0  0  0  0  0
   -6.2489    0.9869    0.0000 C   0  0  0  0  0  0  0  0  0  0  0  0
   -6.3047    2.4859    0.0000 O   0  0  0  0  0  0  0  0  0  0  0  0
   -4.8670   -1.2132    0.0000 C   0  0  0  0  0  0  0  0  0  0  0  0
   -6.1373   -2.0110    0.0000 O   0  0  0  0  0  0  0  0  0  0  0  0
   -3.5410   -1.9144    0.0000 C   0  0  0  0  0  0  0  0  0  0  0  0
   -3.4852   -3.4134    0.0000 O   0  0  0  0  0  0  0  0  0  0  0  0
   -2.2707   -1.1166    0.0000 C   0  0  0  0  0  0  0  0  0  0  0  0
   -0.9447   -1.8178    0.0000 O   0  0  0  0  0  0  0  0  0  0  0  0
    1.5400    1.2768    0.0000 C   0  0  0  0  0  0  0  0  0  0  0  0
    2.8660    0.5756    0.0000 C   0  0  0  0  0  0  0  0  0  0  0  0
    3.9426    1.6201    0.0000 C   0  0  0  0  0  0  0  0  0  0  0  0
    5.4204    1.3630    0.0000 O   0  0  0  0  0  0  0  0  0  0  0  0
    3.2820    2.9668    0.0000 C   0  0  0  0  0  0  0  0  0  0  0  0
    1.7971    2.7546    0.0000 C   0  0  0  0  0  0  0  0  0  0  0  0
    1.7413    4.2536    0.0000 C   0  0  0  0  0  0  0  0  0  0  0  0
    0.3005    2.8558    0.0000 O   0  0  0  0  0  0  0  0  0  0  0  0
  1  2  1  0
  2  3  1  0
  3  4  2  0
  3  5  1  0
  5  6  2  0
  6  7  1  0
  7  8  1  0
  8  9  1  1
 10  9  1  1
 10 11  1  0
 11 12  1  0
 12 13  1  1
 13 14  1  0
 12 15  1  0
 15 16  1  6
 15 17  1  0
 17 18  1  1
 17 19  1  0
 19 20  1  6
 21  8  1  1
 21 22  1  0
 22 23  1  0
 23 24  1  1
 23 25  1  0
 25 26  1  0
 26 27  1  1
 26 28  1  0
 22  5  1  1
 19 10  1  0
 26 21  1  0
M  END
