
     RDKit          2D

 28 32  0  0  0  0  0  0  0  0999 V2000
    7.3337    2.5133    0.0000 C   0  0  0  0  0  0  0  0  0  0  0  0
    5.9754    1.8770    0.0000 N   0  0  0  0  0  0  0  0  0  0  0  0
    5.8473    0.3825    0.0000 C   0  0  0  0  0  0  0  0  0  0  0  0
    4.4889   -0.2538    0.0000 C   0  0  0  0  0  0  0  0  0  0  0  0
    3.2587    0.6044    0.0000 C   0  0  0  0  0  0  0  0  0  0  0  0
    1.9003   -0.0320    0.0000 N   0  0  0  0  0  0  0  0  0  0  0  0
    0.4899    0.4786    0.0000 C   0  0  0  0  0  0  0  0  0  0  0  0
   -0.0206   -0.9319    0.0000 C   0  0  0  0  0  0  0  0  0  0  0  0
   -1.2509   -0.0737    0.0000 C   0  0  0  0  0  0  0  0  0  0  0  0
   -2.6092   -0.7100    0.0000 N   0  0  0  0  0  0  0  0  0  0  0  0
   -3.8395    0.1482    0.0000 C   0  0  0  0  0  0  0  0  0  0  0  0
   -5.1978   -0.4881    0.0000 O   0  0  0  0  0  0  0  0  0  0  0  0
   -3.7114    1.6427    0.0000 C   0  0  0  0  0  0  0  0  0  0  0  0
   -2.3530    2.2791    0.0000 C   0  0  0  0  0  0  0  0  0  0  0  0
   -2.2249    3.7736    0.0000 C   0  0  0  0  0  0  0  0  0  0  0  0
   -3.4552    4.6318    0.0000 C   0  0  0  0  0  0  0  0  0  0  0  0
   -4.8135    3.9955    0.0000 C   0  0  0  0  0  0  0  0  0  0  0  0
   -4.9416    2.5009    0.0000 C   0  0  0  0  0  0  0  0  0  0  0  0
   -2.7373   -2.2045    0.0000 C   0  0  0  0  0  0  0  0  0  0  0  0
   -1.5071   -3.0627    0.0000 C   0  0  0  0  0  0  0  0  0  0  0  0
   -1.6352   -4.5572    0.0000 C   0  0  0  0  0  0  0  0  0  0  0  0
   -0.4049   -5.4154    0.0000 O   0  0  0  0  0  0  0  0  0  0  0  0
    0.9534   -4.7791    0.0000 C   0  0  0  0  0  0  0  0  0  0  0  0
    1.0815   -3.2846    0.0000 C   0  0  0  0  0  0  0  0  0  0  0  0
   -0.1487   -2.4264    0.0000 N   0  0  0  0  0  0  0  0  0  0  0  0
    1.3898   -1.4424    0.0000 C   0  0  0  0  0  0  0  0  0  0  0  0
    3.3868    2.0989    0.0000 C   0  0  0  0  0  0  0  0  0  0  0  0
    4.7451    2.7352    0.0000 C   0  0  0  0  0  0  0  0  0  0  0  0
  1  2  1  0
  2  3  1  0
  3  4  1  0
  4  5  1  0
  5  6  1  0
  6  7  1  0
  7  8  1  0
  8  9  1  0
  9 10  1  0
 10 11  1  0
 11 12  2  0
 11 13  1  0
 13 14  2  0
 14 15  1  0
 15 16  2  0
 16 17  1  0
 17 18  2  0
 10 19  1  0
 20 19  1  1
 20 21  1  0
 21 22  1  0
 22 23  1  0
 23 24  1  0
 24 25  1  0
  8 26  1  0
  5 27  1  0
 27 28  1  0
 28  2  1  0
 26  6  1  0
 25  8  1  0
 18 13  1  0
 25 20  1  0
M  END
