
     RDKit          2D

 28 31  0  0  0  0  0  0  0  0999 V2000
   -8.0158   -0.1601    0.0000 C   0  0  0  0  0  0  0  0  0  0  0  0
   -6.5359    0.0846    0.0000 C   0  0  0  0  0  0  0  0  0  0  0  0
   -6.0079    1.4886    0.0000 C   0  0  0  0  0  0  0  0  0  0  0  0
   -5.5840   -1.0746    0.0000 C   0  0  0  0  0  0  0  0  0  0  0  0
   -4.1041   -0.8299    0.0000 C   0  0  0  0  0  0  0  0  0  0  0  0
   -3.0363   -1.8833    0.0000 C   0  0  0  0  0  0  0  0  0  0  0  0
   -1.7044   -1.1933    0.0000 C   0  0  0  0  0  0  0  0  0  0  0  0
   -0.5658   -2.1697    0.0000 C   0  0  0  0  0  0  0  0  0  0  0  0
   -1.9492    0.2866    0.0000 C   0  0  0  0  0  0  0  0  0  0  0  0
   -2.1939    1.7665    0.0000 C   0  0  0  0  0  0  0  0  0  0  0  0
   -0.8620    2.4566    0.0000 C   0  0  0  0  0  0  0  0  0  0  0  0
    0.2058    1.4032    0.0000 C   0  0  0  0  0  0  0  0  0  0  0  0
    0.5460    2.8641    0.0000 C   0  0  0  0  0  0  0  0  0  0  0  0
    1.6292    1.8764    0.0000 C   0  0  0  0  0  0  0  0  0  0  0  0
    2.9703    1.2045    0.0000 C   0  0  0  0  0  0  0  0  0  0  0  0
    4.1778    2.0944    0.0000 C   0  0  0  0  0  0  0  0  0  0  0  0
    4.1676    3.5944    0.0000 C   0  0  0  0  0  0  0  0  0  0  0  0
    5.3973    1.2210    0.0000 C   0  0  0  0  0  0  0  0  0  0  0  0
    4.9435   -0.2087    0.0000 C   0  0  0  0  0  0  0  0  0  0  0  0
    5.8334   -1.4162    0.0000 O   0  0  0  0  0  0  0  0  0  0  0  0
    3.4435   -0.2189    0.0000 C   0  0  0  0  0  0  0  0  0  0  0  0
    2.7717   -1.5600    0.0000 C   0  0  0  0  0  0  0  0  0  0  0  0
    3.7536   -2.6939    0.0000 C   0  0  0  0  0  0  0  0  0  0  0  0
    3.2625   -4.1113    0.0000 O   0  0  0  0  0  0  0  0  0  0  0  0
    1.3483   -2.0332    0.0000 C   0  0  0  0  0  0  0  0  0  0  0  0
    0.0072   -1.3613    0.0000 C   0  0  0  0  0  0  0  0  0  0  0  0
   -0.4661    0.0621    0.0000 C   0  0  0  0  0  0  0  0  0  0  0  0
   -3.4323    0.5112    0.0000 O   0  0  0  0  0  0  0  0  0  0  0  0
  1  2  1  0
  2  3  1  0
  2  4  2  0
  5  4  1  6
  5  6  1  0
  6  7  1  0
  7  8  1  1
  7  9  1  0
  9 10  1  1
 10 11  1  0
 11 12  1  0
 12 13  1  1
 12 14  1  0
 15 14  1  6
 15 16  1  0
 16 17  1  0
 16 18  2  0
 18 19  1  0
 19 20  2  0
 21 19  1  6
 21 22  1  0
 22 23  1  0
 23 24  2  0
 22 25  2  0
 25 26  1  0
 27 26  1  1
  9 28  1  0
 28  5  1  0
 27  9  1  0
 27 12  1  0
 21 15  1  0
M  END
