
     RDKit          2D

 28 30  0  0  0  0  0  0  0  0999 V2000
  -10.3329   -0.2835    0.0000 C   0  0  0  0  0  0  0  0  0  0  0  0
   -9.1677   -1.2281    0.0000 O   0  0  0  0  0  0  0  0  0  0  0  0
   -7.7670   -0.6913    0.0000 C   0  0  0  0  0  0  0  0  0  0  0  0
   -7.5316    0.7901    0.0000 C   0  0  0  0  0  0  0  0  0  0  0  0
   -6.1309    1.3270    0.0000 C   0  0  0  0  0  0  0  0  0  0  0  0
   -4.9657    0.3824    0.0000 C   0  0  0  0  0  0  0  0  0  0  0  0
   -3.5651    0.9192    0.0000 C   0  0  0  0  0  0  0  0  0  0  0  0
   -2.3998   -0.0254    0.0000 N   0  0  0  0  0  0  0  0  0  0  0  0
   -0.9992    0.5114    0.0000 C   0  0  0  0  0  0  0  0  0  0  0  0
   -0.7637    1.9928    0.0000 O   0  0  0  0  0  0  0  0  0  0  0  0
    0.1660   -0.4332    0.0000 C   0  0  0  0  0  0  0  0  0  0  0  0
    1.5667    0.1036    0.0000 C   0  0  0  0  0  0  0  0  0  0  0  0
    2.7319   -0.8410    0.0000 C   0  0  0  0  0  0  0  0  0  0  0  0
    2.4965   -2.3224    0.0000 C   0  0  0  0  0  0  0  0  0  0  0  0
    4.1326   -0.3042    0.0000 C   0  0  0  0  0  0  0  0  0  0  0  0
    5.2978   -1.2488    0.0000 C   0  0  0  0  0  0  0  0  0  0  0  0
    5.0623   -2.7302    0.0000 O   0  0  0  0  0  0  0  0  0  0  0  0
    6.2276   -3.6748    0.0000 C   0  0  0  0  0  0  0  0  0  0  0  0
    6.6984   -0.7120    0.0000 C   0  0  0  0  0  0  0  0  0  0  0  0
    6.9339    0.7694    0.0000 C   0  0  0  0  0  0  0  0  0  0  0  0
    8.3345    1.3062    0.0000 C   0  0  0  0  0  0  0  0  0  0  0  0
    5.7687    1.7140    0.0000 C   0  0  0  0  0  0  0  0  0  0  0  0
    4.3680    1.1772    0.0000 C   0  0  0  0  0  0  0  0  0  0  0  0
    3.2028    2.1218    0.0000 O   0  0  0  0  0  0  0  0  0  0  0  0
    1.8021    1.5850    0.0000 C   0  0  0  0  0  0  0  0  0  0  0  0
    0.6369    2.5296    0.0000 O   0  0  0  0  0  0  0  0  0  0  0  0
   -5.2012   -1.0990    0.0000 C   0  0  0  0  0  0  0  0  0  0  0  0
   -6.6018   -1.6359    0.0000 C   0  0  0  0  0  0  0  0  0  0  0  0
  1  2  1  0
  2  3  1  0
  3  4  2  0
  4  5  1  0
  5  6  2  0
  6  7  1  0
  7  8  1  0
  8  9  1  0
  9 10  2  0
  9 11  1  0
 11 12  1  0
 12 13  2  0
 13 14  1  0
 13 15  1  0
 15 16  2  0
 16 17  1  0
 17 18  1  0
 16 19  1  0
 19 20  2  0
 20 21  1  0
 20 22  1  0
 22 23  2  0
 23 24  1  0
 24 25  1  0
 25 26  2  0
  6 27  1  0
 27 28  2  0
 28  3  1  0
 25 12  1  0
 23 15  1  0
M  END
