
     RDKit          2D

 28 31  0  0  0  0  0  0  0  0999 V2000
    3.5368   -1.7510    0.0000 C   0  0  0  0  0  0  0  0  0  0  0  0
    2.0821   -1.3850    0.0000 C   0  0  0  0  0  0  0  0  0  0  0  0
    1.0378   -2.4618    0.0000 C   0  0  0  0  0  0  0  0  0  0  0  0
   -0.4168   -2.0958    0.0000 C   0  0  0  0  0  0  0  0  0  0  0  0
   -0.8272   -0.6530    0.0000 C   0  0  0  0  0  0  0  0  0  0  0  0
    0.2171    0.4238    0.0000 C   0  0  0  0  0  0  0  0  0  0  0  0
   -0.1932    1.8666    0.0000 O   0  0  0  0  0  0  0  0  0  0  0  0
    1.6718    0.0578    0.0000 N   0  0  0  0  0  0  0  0  0  0  0  0
    2.7161    1.1345    0.0000 C   0  0  0  0  0  0  0  0  0  0  0  0
    4.1707    0.7685    0.0000 C   0  0  0  0  0  0  0  0  0  0  0  0
    4.5811   -0.6743    0.0000 C   0  0  0  0  0  0  0  0  0  0  0  0
    6.0357   -1.0403    0.0000 C   0  0  0  0  0  0  0  0  0  0  0  0
    7.0801    0.0365    0.0000 C   0  0  0  0  0  0  0  0  0  0  0  0
    6.6697    1.4793    0.0000 C   0  0  0  0  0  0  0  0  0  0  0  0
    5.2150    1.8453    0.0000 C   0  0  0  0  0  0  0  0  0  0  0  0
   -2.2819   -0.2870    0.0000 C   0  0  0  0  0  0  0  0  0  0  0  0
   -2.6922    1.1558    0.0000 C   0  0  0  0  0  0  0  0  0  0  0  0
   -1.6479    2.2326    0.0000 C   0  0  0  0  0  0  0  0  0  0  0  0
   -2.0583    3.6753    0.0000 C   0  0  0  0  0  0  0  0  0  0  0  0
   -3.5129    4.0414    0.0000 C   0  0  0  0  0  0  0  0  0  0  0  0
   -4.5572    2.9646    0.0000 C   0  0  0  0  0  0  0  0  0  0  0  0
   -4.1469    1.5218    0.0000 C   0  0  0  0  0  0  0  0  0  0  0  0
   -3.3262   -1.3637    0.0000 C   0  0  0  0  0  0  0  0  0  0  0  0
   -4.7808   -0.9977    0.0000 C   0  0  0  0  0  0  0  0  0  0  0  0
   -6.2355   -0.6317    0.0000 N   0  0  0  0  0  0  0  0  0  0  0  0
   -2.9158   -2.8065    0.0000 C   0  0  0  0  0  0  0  0  0  0  0  0
   -3.9601   -3.8833    0.0000 N   0  0  0  0  0  0  0  0  0  0  0  0
   -1.4612   -3.1725    0.0000 O   0  0  0  0  0  0  0  0  0  0  0  0
  1  2  1  0
  2  3  2  0
  3  4  1  0
  4  5  2  0
  5  6  1  0
  6  7  2  0
  6  8  1  0
  8  9  1  0
  9 10  1  0
 10 11  2  0
 11 12  1  0
 12 13  2  0
 13 14  1  0
 14 15  2  0
  5 16  1  0
 16 17  1  1
 17 18  2  0
 18 19  1  0
 19 20  2  0
 20 21  1  0
 21 22  2  0
 16 23  1  0
 23 24  1  0
 24 25  3  0
 23 26  2  0
 26 27  1  0
 26 28  1  0
  8  2  1  0
 15 10  1  0
 22 17  1  0
 28  4  1  0
M  END
