
     RDKit          2D

 28 30  0  0  0  0  0  0  0  0999 V2000
  -10.7946    0.0294    0.0000 C   0  0  0  0  0  0  0  0  0  0  0  0
   -9.4057    0.5960    0.0000 C   0  0  0  0  0  0  0  0  0  0  0  0
   -9.2018    2.0821    0.0000 C   0  0  0  0  0  0  0  0  0  0  0  0
   -8.2206   -0.3236    0.0000 C   0  0  0  0  0  0  0  0  0  0  0  0
   -6.8317    0.2429    0.0000 C   0  0  0  0  0  0  0  0  0  0  0  0
   -5.6466   -0.6766    0.0000 C   0  0  0  0  0  0  0  0  0  0  0  0
   -4.2577   -0.1101    0.0000 C   0  0  0  0  0  0  0  0  0  0  0  0
   -4.0539    1.3760    0.0000 C   0  0  0  0  0  0  0  0  0  0  0  0
   -3.0726   -1.0297    0.0000 C   0  0  0  0  0  0  0  0  0  0  0  0
   -1.6837   -0.4632    0.0000 C   0  0  0  0  0  0  0  0  0  0  0  0
   -0.4987   -1.3827    0.0000 C   0  0  0  0  0  0  0  0  0  0  0  0
    0.8902   -0.8162    0.0000 C   0  0  0  0  0  0  0  0  0  0  0  0
    0.1816    0.5059    0.0000 C   0  0  0  0  0  0  0  0  0  0  0  0
    2.1310    0.0267    0.0000 C   0  0  0  0  0  0  0  0  0  0  0  0
    3.3161   -0.8929    0.0000 C   0  0  0  0  0  0  0  0  0  0  0  0
    2.8077   -2.3041    0.0000 O   0  0  0  0  0  0  0  0  0  0  0  0
    1.3085   -2.2567    0.0000 C   0  0  0  0  0  0  0  0  0  0  0  0
    0.3889   -3.4418    0.0000 C   0  0  0  0  0  0  0  0  0  0  0  0
    4.7050   -0.3263    0.0000 C   0  0  0  0  0  0  0  0  0  0  0  0
    5.8901   -1.2459    0.0000 C   0  0  0  0  0  0  0  0  0  0  0  0
    7.2790   -0.6794    0.0000 C   0  0  0  0  0  0  0  0  0  0  0  0
    7.4828    0.8067    0.0000 C   0  0  0  0  0  0  0  0  0  0  0  0
    8.8717    1.3732    0.0000 O   0  0  0  0  0  0  0  0  0  0  0  0
    6.2977    1.7263    0.0000 C   0  0  0  0  0  0  0  0  0  0  0  0
    4.9088    1.1597    0.0000 C   0  0  0  0  0  0  0  0  0  0  0  0
    3.7237    2.0793    0.0000 O   0  0  0  0  0  0  0  0  0  0  0  0
    2.3348    1.5128    0.0000 C   0  0  0  0  0  0  0  0  0  0  0  0
    1.1498    2.4324    0.0000 O   0  0  0  0  0  0  0  0  0  0  0  0
  1  2  1  0
  2  3  1  0
  2  4  2  0
  4  5  1  0
  5  6  1  0
  6  7  1  0
  7  8  1  0
  7  9  2  0
  9 10  1  0
 10 11  1  0
 11 12  1  0
 12 13  1  6
 12 14  1  0
 14 15  2  0
 15 16  1  0
 16 17  1  0
 17 18  1  6
 15 19  1  0
 19 20  2  0
 20 21  1  0
 21 22  2  0
 22 23  1  0
 22 24  1  0
 24 25  2  0
 25 26  1  0
 26 27  1  0
 27 28  2  0
 17 12  1  0
 25 19  1  0
 27 14  1  0
M  END
