
     RDKit          2D

 28 30  0  0  0  0  0  0  0  0999 V2000
    4.5936   -4.6782    0.0000 C   0  0  0  0  0  0  0  0  0  0  0  0
    4.6123   -3.1783    0.0000 C   0  0  0  0  0  0  0  0  0  0  0  0
    3.3227   -2.4122    0.0000 C   0  0  0  0  0  0  0  0  0  0  0  0
    3.3414   -0.9123    0.0000 C   0  0  0  0  0  0  0  0  0  0  0  0
    4.6496   -0.1785    0.0000 C   0  0  0  0  0  0  0  0  0  0  0  0
    4.6683    1.3213    0.0000 C   0  0  0  0  0  0  0  0  0  0  0  0
    5.9766    2.0551    0.0000 O   0  0  0  0  0  0  0  0  0  0  0  0
    3.3787    2.0874    0.0000 C   0  0  0  0  0  0  0  0  0  0  0  0
    2.0704    1.3537    0.0000 C   0  0  0  0  0  0  0  0  0  0  0  0
    0.7808    2.1198    0.0000 O   0  0  0  0  0  0  0  0  0  0  0  0
    0.7995    3.6197    0.0000 C   0  0  0  0  0  0  0  0  0  0  0  0
    2.0518   -0.1462    0.0000 C   0  0  0  0  0  0  0  0  0  0  0  0
    0.7435   -0.8800    0.0000 O   0  0  0  0  0  0  0  0  0  0  0  0
   -0.5461   -0.1139    0.0000 C   0  0  0  0  0  0  0  0  0  0  0  0
   -0.5274    1.3860    0.0000 C   0  0  0  0  0  0  0  0  0  0  0  0
    0.0528    1.9326    0.0000 Cl  0  0  0  0  0  0  0  0  0  0  0  0
   -1.8170    2.1521    0.0000 C   0  0  0  0  0  0  0  0  0  0  0  0
   -1.7984    3.6520    0.0000 O   0  0  0  0  0  0  0  0  0  0  0  0
   -3.1253    1.4183    0.0000 C   0  0  0  0  0  0  0  0  0  0  0  0
   -4.4149    2.1845    0.0000 Cl  0  0  0  0  0  0  0  0  0  0  0  0
   -3.1440   -0.0815    0.0000 C   0  0  0  0  0  0  0  0  0  0  0  0
   -1.8544   -0.8476    0.0000 C   0  0  0  0  0  0  0  0  0  0  0  0
   -2.1845   -2.3109    0.0000 C   0  0  0  0  0  0  0  0  0  0  0  0
   -1.1947   -3.4380    0.0000 O   0  0  0  0  0  0  0  0  0  0  0  0
   -3.6781   -2.4491    0.0000 O   0  0  0  0  0  0  0  0  0  0  0  0
   -4.2711   -1.0713    0.0000 C   0  0  0  0  0  0  0  0  0  0  0  0
   -5.7343   -0.7412    0.0000 C   0  0  0  0  0  0  0  0  0  0  0  0
   -6.7518   -1.8433    0.0000 C   0  0  0  0  0  0  0  0  0  0  0  0
  1  2  1  0
  2  3  1  0
  3  4  1  0
  4  5  2  0
  5  6  1  0
  6  7  1  0
  6  8  2  0
  8  9  1  0
  9 10  1  0
 10 11  1  0
  9 12  2  0
 12 13  1  0
 13 14  1  0
 14 15  2  0
 15 16  1  0
 15 17  1  0
 17 18  1  0
 17 19  2  0
 19 20  1  0
 19 21  1  0
 21 22  2  0
 22 23  1  0
 23 24  2  0
 23 25  1  0
 25 26  1  0
 26 27  1  6
 27 28  1  0
 12  4  1  0
 22 14  1  0
 26 21  1  0
M  END
