
     RDKit          2D

 28 32  0  0  0  0  0  0  0  0999 V2000
   -0.5606   -5.4351    0.0000 O   0  0  0  0  0  0  0  0  0  0  0  0
   -0.5664   -3.9351    0.0000 C   0  0  0  0  0  0  0  0  0  0  0  0
    0.6436   -3.0487    0.0000 O   0  0  0  0  0  0  0  0  0  0  0  0
    0.1745   -1.6239    0.0000 C   0  0  0  0  0  0  0  0  0  0  0  0
    1.6551   -1.3835    0.0000 C   0  0  0  0  0  0  0  0  0  0  0  0
    1.4147    0.0971    0.0000 N   0  0  0  0  0  0  0  0  0  0  0  0
    2.2916    1.3141    0.0000 C   0  0  0  0  0  0  0  0  0  0  0  0
    3.7840    1.1631    0.0000 C   0  0  0  0  0  0  0  0  0  0  0  0
    4.3995   -0.2048    0.0000 C   0  0  0  0  0  0  0  0  0  0  0  0
    5.8918   -0.3558    0.0000 C   0  0  0  0  0  0  0  0  0  0  0  0
    6.7688    0.8612    0.0000 C   0  0  0  0  0  0  0  0  0  0  0  0
    8.2612    0.7102    0.0000 Cl  0  0  0  0  0  0  0  0  0  0  0  0
    6.1533    2.2291    0.0000 C   0  0  0  0  0  0  0  0  0  0  0  0
    4.6609    2.3801    0.0000 C   0  0  0  0  0  0  0  0  0  0  0  0
   -0.0659   -0.1433    0.0000 C   0  0  0  0  0  0  0  0  0  0  0  0
   -1.3255   -1.6298    0.0000 C   0  0  0  0  0  0  0  0  0  0  0  0
   -2.3335   -0.5190    0.0000 C   0  0  0  0  0  0  0  0  0  0  0  0
   -3.7995   -0.8366    0.0000 N   0  0  0  0  0  0  0  0  0  0  0  0
   -4.8075    0.2742    0.0000 C   0  0  0  0  0  0  0  0  0  0  0  0
   -4.3496    1.7026    0.0000 C   0  0  0  0  0  0  0  0  0  0  0  0
   -2.8836    2.0202    0.0000 C   0  0  0  0  0  0  0  0  0  0  0  0
   -2.4257    3.4485    0.0000 C   0  0  0  0  0  0  0  0  0  0  0  0
   -3.4337    4.5593    0.0000 C   0  0  0  0  0  0  0  0  0  0  0  0
   -4.8997    4.2417    0.0000 C   0  0  0  0  0  0  0  0  0  0  0  0
   -5.3576    2.8133    0.0000 C   0  0  0  0  0  0  0  0  0  0  0  0
   -4.2574   -2.2650    0.0000 C   0  0  0  0  0  0  0  0  0  0  0  0
   -3.2494   -3.3758    0.0000 C   0  0  0  0  0  0  0  0  0  0  0  0
   -1.7834   -3.0582    0.0000 N   0  0  0  0  0  0  0  0  0  0  0  0
  1  2  2  0
  2  3  1  0
  3  4  1  0
  4  5  1  0
  5  6  1  0
  6  7  1  0
  7  8  1  0
  8  9  2  0
  9 10  1  0
 10 11  2  0
 11 12  1  0
 11 13  1  0
 13 14  2  0
  6 15  1  0
  4 16  1  0
 16 17  1  0
 17 18  1  0
 18 19  1  0
 19 20  1  0
 20 21  2  0
 21 22  1  0
 22 23  2  0
 23 24  1  0
 24 25  2  0
 18 26  1  0
 26 27  1  0
 27 28  1  0
 28  2  1  0
 15  4  1  0
 28 16  1  0
 14  8  1  0
 25 20  1  0
M  END
