
     RDKit          2D

 28 29  0  0  0  0  0  0  0  0999 V2000
   -6.0138   -1.9501    0.0000 C   0  0  0  0  0  0  0  0  0  0  0  0
   -4.5803   -1.5084    0.0000 O   0  0  0  0  0  0  0  0  0  0  0  0
   -4.2461   -0.0461    0.0000 C   0  0  0  0  0  0  0  0  0  0  0  0
   -5.3454    0.9745    0.0000 C   0  0  0  0  0  0  0  0  0  0  0  0
   -6.7789    0.5328    0.0000 O   0  0  0  0  0  0  0  0  0  0  0  0
   -5.0112    2.4367    0.0000 C   0  0  0  0  0  0  0  0  0  0  0  0
   -3.5777    2.8784    0.0000 C   0  0  0  0  0  0  0  0  0  0  0  0
   -2.4784    1.8579    0.0000 C   0  0  0  0  0  0  0  0  0  0  0  0
   -1.0449    2.2996    0.0000 C   0  0  0  0  0  0  0  0  0  0  0  0
    0.0544    1.2790    0.0000 C   0  0  0  0  0  0  0  0  0  0  0  0
    1.4879    1.7207    0.0000 C   0  0  0  0  0  0  0  0  0  0  0  0
    1.8221    3.1830    0.0000 O   0  0  0  0  0  0  0  0  0  0  0  0
    2.5871    0.7001    0.0000 C   0  0  0  0  0  0  0  0  0  0  0  0
    4.0206    1.1418    0.0000 C   0  0  0  0  0  0  0  0  0  0  0  0
    4.3548    2.6041    0.0000 O   0  0  0  0  0  0  0  0  0  0  0  0
    5.1199    0.1212    0.0000 C   0  0  0  0  0  0  0  0  0  0  0  0
    6.5534    0.5629    0.0000 C   0  0  0  0  0  0  0  0  0  0  0  0
    7.6527   -0.4577    0.0000 C   0  0  0  0  0  0  0  0  0  0  0  0
    9.0861   -0.0160    0.0000 O   0  0  0  0  0  0  0  0  0  0  0  0
   -2.8126    0.3956    0.0000 C   0  0  0  0  0  0  0  0  0  0  0  0
   -1.7133   -0.6250    0.0000 C   0  0  0  0  0  0  0  0  0  0  0  0
   -2.0476   -2.0873    0.0000 C   0  0  0  0  0  0  0  0  0  0  0  0
   -0.9483   -3.1079    0.0000 C   0  0  0  0  0  0  0  0  0  0  0  0
    0.4852   -2.6662    0.0000 C   0  0  0  0  0  0  0  0  0  0  0  0
    1.5845   -3.6868    0.0000 C   0  0  0  0  0  0  0  0  0  0  0  0
    1.2502   -5.1491    0.0000 N   0  0  0  0  0  0  0  0  0  0  0  0
    0.8194   -1.2039    0.0000 C   0  0  0  0  0  0  0  0  0  0  0  0
   -0.2799   -0.1833    0.0000 C   0  0  0  0  0  0  0  0  0  0  0  0
  1  2  1  0
  2  3  1  0
  3  4  2  0
  4  5  1  0
  4  6  1  0
  6  7  2  0
  7  8  1  0
  8  9  1  0
  9 10  1  0
 10 11  1  0
 11 12  2  0
 11 13  1  0
 13 14  1  0
 14 15  1  6
 14 16  1  0
 16 17  1  0
 17 18  1  0
 18 19  1  0
  8 20  2  0
 20 21  1  0
 21 22  2  0
 22 23  1  0
 23 24  2  0
 24 25  1  0
 25 26  1  0
 24 27  1  0
 27 28  2  0
 20  3  1  0
 28 21  1  0
M  END
