
     RDKit          2D

 28 31  0  0  0  0  0  0  0  0999 V2000
    8.9856   -2.3143    0.0000 N   0  0  0  0  0  0  0  0  0  0  0  0
    7.4970   -2.1296    0.0000 C   0  0  0  0  0  0  0  0  0  0  0  0
    6.0084   -1.9450    0.0000 C   0  0  0  0  0  0  0  0  0  0  0  0
    5.1042   -3.1418    0.0000 C   0  0  0  0  0  0  0  0  0  0  0  0
    3.6156   -2.9572    0.0000 C   0  0  0  0  0  0  0  0  0  0  0  0
    3.0312   -1.5757    0.0000 C   0  0  0  0  0  0  0  0  0  0  0  0
    3.9354   -0.3788    0.0000 C   0  0  0  0  0  0  0  0  0  0  0  0
    3.3510    1.0026    0.0000 C   0  0  0  0  0  0  0  0  0  0  0  0
    4.2552    2.1995    0.0000 C   0  0  0  0  0  0  0  0  0  0  0  0
    3.6708    3.5809    0.0000 C   0  0  0  0  0  0  0  0  0  0  0  0
    2.1822    3.7656    0.0000 N   0  0  0  0  0  0  0  0  0  0  0  0
    1.2780    2.5688    0.0000 C   0  0  0  0  0  0  0  0  0  0  0  0
   -0.2106    2.7534    0.0000 N   0  0  0  0  0  0  0  0  0  0  0  0
   -1.1148    1.5566    0.0000 C   0  0  0  0  0  0  0  0  0  0  0  0
   -0.6780    0.1216    0.0000 C   0  0  0  0  0  0  0  0  0  0  0  0
   -1.9078   -0.7373    0.0000 O   0  0  0  0  0  0  0  0  0  0  0  0
   -3.1046    0.1669    0.0000 C   0  0  0  0  0  0  0  0  0  0  0  0
   -2.6145    1.5846    0.0000 C   0  0  0  0  0  0  0  0  0  0  0  0
   -3.8113    2.4888    0.0000 O   0  0  0  0  0  0  0  0  0  0  0  0
   -5.0411    1.6299    0.0000 C   0  0  0  0  0  0  0  0  0  0  0  0
   -4.6043    0.1949    0.0000 C   0  0  0  0  0  0  0  0  0  0  0  0
   -5.5086   -1.0019    0.0000 O   0  0  0  0  0  0  0  0  0  0  0  0
   -6.9971   -0.8172    0.0000 C   0  0  0  0  0  0  0  0  0  0  0  0
   -7.9013   -2.0141    0.0000 C   0  0  0  0  0  0  0  0  0  0  0  0
   -9.3899   -1.8294    0.0000 N   0  0  0  0  0  0  0  0  0  0  0  0
   -7.3170   -3.3956    0.0000 O   0  0  0  0  0  0  0  0  0  0  0  0
    1.8624    1.1873    0.0000 N   0  0  0  0  0  0  0  0  0  0  0  0
    5.4240   -0.5635    0.0000 C   0  0  0  0  0  0  0  0  0  0  0  0
  1  2  3  0
  2  3  1  0
  3  4  2  0
  4  5  1  0
  5  6  2  0
  6  7  1  0
  7  8  1  0
  8  9  2  0
  9 10  1  0
 10 11  2  0
 11 12  1  0
 12 13  1  0
 14 13  1  6
 14 15  1  0
 15 16  1  0
 17 16  1  1
 17 18  1  0
 18 19  1  6
 19 20  1  0
 20 21  1  0
 21 22  1  6
 22 23  1  0
 23 24  1  0
 24 25  1  0
 24 26  2  0
 12 27  2  0
  7 28  2  0
 28  3  1  0
 27  8  1  0
 18 14  1  0
 21 17  1  0
M  END
