
     RDKit          2D

 28 28  0  0  0  0  0  0  0  0999 V2000
   -5.8828    3.0306    0.0000 C   0  0  0  0  0  0  0  0  0  0  0  0
   -5.8425    1.5311    0.0000 O   0  0  0  0  0  0  0  0  0  0  0  0
   -4.5238    0.8163    0.0000 C   0  0  0  0  0  0  0  0  0  0  0  0
   -3.2454    1.6009    0.0000 O   0  0  0  0  0  0  0  0  0  0  0  0
   -4.4835   -0.6832    0.0000 C   0  0  0  0  0  0  0  0  0  0  0  0
   -5.7619   -1.4678    0.0000 C   0  0  0  0  0  0  0  0  0  0  0  0
   -7.0806   -0.7530    0.0000 C   0  0  0  0  0  0  0  0  0  0  0  0
   -8.3591   -1.5376    0.0000 C   0  0  0  0  0  0  0  0  0  0  0  0
   -7.1209    0.7465    0.0000 C   0  0  0  0  0  0  0  0  0  0  0  0
   -3.1648   -1.3980    0.0000 N   0  0  0  0  0  0  0  0  0  0  0  0
   -1.8864   -0.6134    0.0000 C   0  0  0  0  0  0  0  0  0  0  0  0
   -1.9267    0.8861    0.0000 O   0  0  0  0  0  0  0  0  0  0  0  0
   -0.5677   -1.3282    0.0000 C   0  0  0  0  0  0  0  0  0  0  0  0
    0.7108   -0.5436    0.0000 O   0  0  0  0  0  0  0  0  0  0  0  0
    2.0295   -1.2584    0.0000 C   0  0  0  0  0  0  0  0  0  0  0  0
    2.0698   -2.7579    0.0000 O   0  0  0  0  0  0  0  0  0  0  0  0
    3.3079   -0.4738    0.0000 C   0  0  0  0  0  0  0  0  0  0  0  0
    3.2676    1.0256    0.0000 C   0  0  0  0  0  0  0  0  0  0  0  0
    4.5460    1.8103    0.0000 C   0  0  0  0  0  0  0  0  0  0  0  0
    4.5057    3.3097    0.0000 N   0  0  0  0  0  0  0  0  0  0  0  0
    3.1870    4.0246    0.0000 O   0  0  0  0  0  0  0  0  0  0  0  0
    5.7842    4.0944    0.0000 O   0  0  0  0  0  0  0  0  0  0  0  0
    5.8648    1.0954    0.0000 C   0  0  0  0  0  0  0  0  0  0  0  0
    5.9050   -0.4040    0.0000 C   0  0  0  0  0  0  0  0  0  0  0  0
    4.6266   -1.1886    0.0000 C   0  0  0  0  0  0  0  0  0  0  0  0
    4.6669   -2.6881    0.0000 N   0  0  0  0  0  0  0  0  0  0  0  0
    5.9856   -3.4029    0.0000 C   0  0  0  0  0  0  0  0  0  0  0  0
    3.3885   -3.4727    0.0000 C   0  0  0  0  0  0  0  0  0  0  0  0
  1  2  1  0
  2  3  1  0
  3  4  2  0
  3  5  1  0
  5  6  1  6
  6  7  1  0
  7  8  1  0
  7  9  1  0
  5 10  1  0
 10 11  1  0
 11 12  2  0
 11 13  1  0
 13 14  1  0
 14 15  1  0
 15 16  2  0
 15 17  1  0
 17 18  2  0
 18 19  1  0
 19 20  1  0
 20 21  2  0
 20 22  1  0
 19 23  2  0
 23 24  1  0
 24 25  2  0
 25 26  1  0
 26 27  1  0
 26 28  1  0
 25 17  1  0
M  CHG  2  20   1  22  -1
M  END
