
     RDKit          2D

 28 30  0  0  0  0  0  0  0  0999 V2000
    0.3163    6.7556    0.0000 C   0  0  0  0  0  0  0  0  0  0  0  0
   -0.2332    5.3598    0.0000 C   0  0  0  0  0  0  0  0  0  0  0  0
    0.7008    4.1861    0.0000 C   0  0  0  0  0  0  0  0  0  0  0  0
    0.1513    2.7904    0.0000 C   0  0  0  0  0  0  0  0  0  0  0  0
   -1.3322    2.5684    0.0000 O   0  0  0  0  0  0  0  0  0  0  0  0
    1.0852    1.6166    0.0000 N   0  0  0  0  0  0  0  0  0  0  0  0
    0.5357    0.2209    0.0000 C   0  0  0  0  0  0  0  0  0  0  0  0
   -0.9478   -0.0011    0.0000 C   0  0  0  0  0  0  0  0  0  0  0  0
   -1.8817    1.1727    0.0000 C   0  0  0  0  0  0  0  0  0  0  0  0
   -3.3652    0.9507    0.0000 C   0  0  0  0  0  0  0  0  0  0  0  0
   -3.9147   -0.4450    0.0000 C   0  0  0  0  0  0  0  0  0  0  0  0
   -5.3982   -0.6670    0.0000 O   0  0  0  0  0  0  0  0  0  0  0  0
   -6.3322    0.5068    0.0000 C   0  0  0  0  0  0  0  0  0  0  0  0
   -2.9808   -1.6188    0.0000 C   0  0  0  0  0  0  0  0  0  0  0  0
   -3.5303   -3.0145    0.0000 O   0  0  0  0  0  0  0  0  0  0  0  0
   -5.0138   -3.2365    0.0000 C   0  0  0  0  0  0  0  0  0  0  0  0
   -1.4973   -1.3968    0.0000 C   0  0  0  0  0  0  0  0  0  0  0  0
    1.4697   -0.9529    0.0000 C   0  0  0  0  0  0  0  0  0  0  0  0
    0.9202   -2.3486    0.0000 C   0  0  0  0  0  0  0  0  0  0  0  0
   -0.5633   -2.5706    0.0000 O   0  0  0  0  0  0  0  0  0  0  0  0
    1.8541   -3.5223    0.0000 C   0  0  0  0  0  0  0  0  0  0  0  0
    3.3376   -3.3004    0.0000 C   0  0  0  0  0  0  0  0  0  0  0  0
    3.8871   -1.9047    0.0000 C   0  0  0  0  0  0  0  0  0  0  0  0
    5.3706   -1.6827    0.0000 C   0  0  0  0  0  0  0  0  0  0  0  0
    5.9201   -0.2870    0.0000 C   0  0  0  0  0  0  0  0  0  0  0  0
    4.9862    0.8868    0.0000 C   0  0  0  0  0  0  0  0  0  0  0  0
    3.5027    0.6648    0.0000 C   0  0  0  0  0  0  0  0  0  0  0  0
    2.9532   -0.7309    0.0000 C   0  0  0  0  0  0  0  0  0  0  0  0
  1  2  1  0
  2  3  1  0
  3  4  1  0
  4  5  2  0
  4  6  1  0
  7  6  1  1
  7  8  1  0
  8  9  2  0
  9 10  1  0
 10 11  2  0
 11 12  1  0
 12 13  1  0
 11 14  1  0
 14 15  1  0
 15 16  1  0
 14 17  2  0
  7 18  1  0
 18 19  2  0
 19 20  1  0
 19 21  1  0
 21 22  2  0
 22 23  1  0
 23 24  2  0
 24 25  1  0
 25 26  2  0
 26 27  1  0
 27 28  2  0
 17  8  1  0
 28 18  1  0
 28 23  1  0
M  END
