
     RDKit          2D

 28 30  0  0  0  0  0  0  0  0999 V2000
   -4.0399    2.8062    0.0000 O   0  0  0  0  0  0  0  0  0  0  0  0
   -3.4306    1.4356    0.0000 C   0  0  0  0  0  0  0  0  0  0  0  0
   -1.9389    1.2779    0.0000 O   0  0  0  0  0  0  0  0  0  0  0  0
   -1.0566    2.4909    0.0000 C   0  0  0  0  0  0  0  0  0  0  0  0
    0.4351    2.3333    0.0000 C   0  0  0  0  0  0  0  0  0  0  0  0
    1.0445    0.9626    0.0000 O   0  0  0  0  0  0  0  0  0  0  0  0
    2.5361    0.8050    0.0000 C   0  0  0  0  0  0  0  0  0  0  0  0
    3.1455   -0.5657    0.0000 O   0  0  0  0  0  0  0  0  0  0  0  0
    2.2631   -1.7787    0.0000 C   0  0  0  0  0  0  0  0  0  0  0  0
    0.7714   -1.6211    0.0000 C   0  0  0  0  0  0  0  0  0  0  0  0
   -0.1110   -2.8341    0.0000 C   0  0  0  0  0  0  0  0  0  0  0  0
    0.4983   -4.2047    0.0000 C   0  0  0  0  0  0  0  0  0  0  0  0
    1.9900   -4.3624    0.0000 C   0  0  0  0  0  0  0  0  0  0  0  0
    2.8724   -3.1494    0.0000 C   0  0  0  0  0  0  0  0  0  0  0  0
    4.3641   -3.3070    0.0000 C   0  0  0  0  0  0  0  0  0  0  0  0
    4.9734   -4.6777    0.0000 O   0  0  0  0  0  0  0  0  0  0  0  0
    3.4185    2.0180    0.0000 C   0  0  0  0  0  0  0  0  0  0  0  0
    4.9102    1.8603    0.0000 O   0  0  0  0  0  0  0  0  0  0  0  0
    2.8092    3.3887    0.0000 C   0  0  0  0  0  0  0  0  0  0  0  0
    3.6916    4.6017    0.0000 O   0  0  0  0  0  0  0  0  0  0  0  0
    1.3175    3.5463    0.0000 C   0  0  0  0  0  0  0  0  0  0  0  0
    0.7082    4.9170    0.0000 O   0  0  0  0  0  0  0  0  0  0  0  0
   -4.3130    0.2226    0.0000 C   0  0  0  0  0  0  0  0  0  0  0  0
   -5.8047    0.3802    0.0000 C   0  0  0  0  0  0  0  0  0  0  0  0
   -6.6871   -0.8328    0.0000 C   0  0  0  0  0  0  0  0  0  0  0  0
   -6.0777   -2.2035    0.0000 C   0  0  0  0  0  0  0  0  0  0  0  0
   -4.5861   -2.3611    0.0000 C   0  0  0  0  0  0  0  0  0  0  0  0
   -3.7037   -1.1481    0.0000 C   0  0  0  0  0  0  0  0  0  0  0  0
  1  2  2  0
  2  3  1  0
  3  4  1  0
  4  5  1  0
  5  6  1  0
  6  7  1  0
  7  8  1  6
  8  9  1  0
  9 10  2  0
 10 11  1  0
 11 12  2  0
 12 13  1  0
 13 14  2  0
 14 15  1  0
 15 16  1  0
  7 17  1  0
 17 18  1  0
 17 19  1  0
 19 20  1  6
 19 21  1  0
 21 22  1  1
  2 23  1  0
 23 24  2  0
 24 25  1  0
 25 26  2  0
 26 27  1  0
 27 28  2  0
 21  5  1  0
 28 23  1  0
 14  9  1  0
M  END
