
     RDKit          2D

 28 31  0  0  0  0  0  0  0  0999 V2000
   -3.9042   -2.3839    0.0000 C   0  0  0  0  0  0  0  0  0  0  0  0
   -2.6806   -3.2516    0.0000 O   0  0  0  0  0  0  0  0  0  0  0  0
   -1.3174   -2.6259    0.0000 C   0  0  0  0  0  0  0  0  0  0  0  0
   -1.1777   -1.1324    0.0000 C   0  0  0  0  0  0  0  0  0  0  0  0
    0.1856   -0.5067    0.0000 C   0  0  0  0  0  0  0  0  0  0  0  0
    0.3253    0.9868    0.0000 C   0  0  0  0  0  0  0  0  0  0  0  0
   -0.8008    1.9777    0.0000 N   0  0  0  0  0  0  0  0  0  0  0  0
   -2.2644    1.6491    0.0000 C   0  0  0  0  0  0  0  0  0  0  0  0
   -3.2807    2.7523    0.0000 C   0  0  0  0  0  0  0  0  0  0  0  0
   -4.7443    2.4236    0.0000 C   0  0  0  0  0  0  0  0  0  0  0  0
   -5.1915    0.9918    0.0000 C   0  0  0  0  0  0  0  0  0  0  0  0
   -6.6551    0.6632    0.0000 C   0  0  0  0  0  0  0  0  0  0  0  0
   -4.1751   -0.1113    0.0000 C   0  0  0  0  0  0  0  0  0  0  0  0
   -2.7116    0.2173    0.0000 C   0  0  0  0  0  0  0  0  0  0  0  0
   -0.2064    3.3549    0.0000 C   0  0  0  0  0  0  0  0  0  0  0  0
    1.2871    3.2152    0.0000 C   0  0  0  0  0  0  0  0  0  0  0  0
    1.6157    1.7516    0.0000 N   0  0  0  0  0  0  0  0  0  0  0  0
    2.9929    1.1572    0.0000 C   0  0  0  0  0  0  0  0  0  0  0  0
    3.1667   -0.3327    0.0000 C   0  0  0  0  0  0  0  0  0  0  0  0
    4.5439   -0.9271    0.0000 C   0  0  0  0  0  0  0  0  0  0  0  0
    5.7473   -0.0316    0.0000 C   0  0  0  0  0  0  0  0  0  0  0  0
    7.1245   -0.6260    0.0000 C   0  0  0  0  0  0  0  0  0  0  0  0
    5.5735    1.4583    0.0000 C   0  0  0  0  0  0  0  0  0  0  0  0
    4.1963    2.0527    0.0000 C   0  0  0  0  0  0  0  0  0  0  0  0
    1.4091   -1.3744    0.0000 C   0  0  0  0  0  0  0  0  0  0  0  0
    1.2694   -2.8679    0.0000 C   0  0  0  0  0  0  0  0  0  0  0  0
   -0.0939   -3.4936    0.0000 C   0  0  0  0  0  0  0  0  0  0  0  0
   -0.2336   -4.9871    0.0000 O   0  0  0  0  0  0  0  0  0  0  0  0
  1  2  1  0
  2  3  1  0
  3  4  2  0
  4  5  1  0
  5  6  1  0
  6  7  1  0
  7  8  1  0
  8  9  2  0
  9 10  1  0
 10 11  2  0
 11 12  1  0
 11 13  1  0
 13 14  2  0
  7 15  1  0
 15 16  1  0
 16 17  1  0
 17 18  1  0
 18 19  2  0
 19 20  1  0
 20 21  2  0
 21 22  1  0
 21 23  1  0
 23 24  2  0
  5 25  2  0
 25 26  1  0
 26 27  2  0
 27 28  1  0
 27  3  1  0
 17  6  1  0
 24 18  1  0
 14  8  1  0
M  END
