
     RDKit          2D

 28 32  0  0  0  0  0  0  0  0999 V2000
    1.2166    4.2021    0.0000 O   0  0  0  0  0  0  0  0  0  0  0  0
    1.7939    2.8177    0.0000 C   0  0  0  0  0  0  0  0  0  0  0  0
    0.8836    1.6255    0.0000 C   0  0  0  0  0  0  0  0  0  0  0  0
    1.3130    0.1883    0.0000 C   0  0  0  0  0  0  0  0  0  0  0  0
    0.0788   -0.6642    0.0000 C   0  0  0  0  0  0  0  0  0  0  0  0
    0.0430   -2.1638    0.0000 N   0  0  0  0  0  0  0  0  0  0  0  0
    1.3238   -2.9446    0.0000 C   0  0  0  0  0  0  0  0  0  0  0  0
    1.2881   -4.4441    0.0000 C   0  0  0  0  0  0  0  0  0  0  0  0
    2.5689   -5.2249    0.0000 C   0  0  0  0  0  0  0  0  0  0  0  0
    3.8854   -4.5061    0.0000 O   0  0  0  0  0  0  0  0  0  0  0  0
    3.9211   -3.0065    0.0000 C   0  0  0  0  0  0  0  0  0  0  0  0
    2.6404   -2.2257    0.0000 C   0  0  0  0  0  0  0  0  0  0  0  0
   -1.1134    0.2461    0.0000 C   0  0  0  0  0  0  0  0  0  0  0  0
   -2.5506   -0.1833    0.0000 C   0  0  0  0  0  0  0  0  0  0  0  0
   -3.0480   -1.5984    0.0000 C   0  0  0  0  0  0  0  0  0  0  0  0
   -4.5476   -1.5627    0.0000 N   0  0  0  0  0  0  0  0  0  0  0  0
   -4.9770   -0.1254    0.0000 C   0  0  0  0  0  0  0  0  0  0  0  0
   -6.3921    0.3720    0.0000 C   0  0  0  0  0  0  0  0  0  0  0  0
   -7.8664    0.0951    0.0000 C   0  0  0  0  0  0  0  0  0  0  0  0
   -7.3690    1.5103    0.0000 C   0  0  0  0  0  0  0  0  0  0  0  0
   -3.7428    0.7271    0.0000 N   0  0  0  0  0  0  0  0  0  0  0  0
   -0.6160    1.6612    0.0000 C   0  0  0  0  0  0  0  0  0  0  0  0
   -1.4685    2.8954    0.0000 O   0  0  0  0  0  0  0  0  0  0  0  0
    3.2815    2.6254    0.0000 N   0  0  0  0  0  0  0  0  0  0  0  0
    4.3115    3.7158    0.0000 C   0  0  0  0  0  0  0  0  0  0  0  0
    5.6669    3.0732    0.0000 C   0  0  0  0  0  0  0  0  0  0  0  0
    5.4746    1.5856    0.0000 C   0  0  0  0  0  0  0  0  0  0  0  0
    4.0004    1.3088    0.0000 C   0  0  0  0  0  0  0  0  0  0  0  0
  1  2  2  0
  3  2  1  1
  3  4  1  0
  4  5  1  0
  5  6  1  1
  6  7  1  0
  7  8  1  0
  8  9  1  0
  9 10  1  0
 10 11  1  0
 11 12  1  0
  5 13  1  0
 13 14  1  6
 14 15  2  0
 15 16  1  0
 16 17  2  0
 17 18  1  0
 18 19  1  0
 19 20  1  0
 17 21  1  0
 13 22  1  0
 22 23  1  6
  2 24  1  0
 24 25  1  0
 25 26  1  0
 26 27  1  0
 27 28  1  0
 22  3  1  0
 28 24  1  0
 12  7  1  0
 21 14  1  0
 20 18  1  0
M  END
