
     RDKit          2D

 29 32  0  0  0  0  0  0  0  0999 V2000
    0.4466   -4.9060    0.0000 C   0  0  0  0  0  0  0  0  0  0  0  0
   -0.0674   -3.4968    0.0000 C   0  0  0  0  0  0  0  0  0  0  0  0
   -1.5448   -3.2374    0.0000 C   0  0  0  0  0  0  0  0  0  0  0  0
   -2.0588   -1.8282    0.0000 C   0  0  0  0  0  0  0  0  0  0  0  0
   -3.5362   -1.5687    0.0000 C   0  0  0  0  0  0  0  0  0  0  0  0
   -4.0502   -0.1595    0.0000 N   0  0  0  0  0  0  0  0  0  0  0  0
   -5.5276    0.0999    0.0000 C   0  0  0  0  0  0  0  0  0  0  0  0
   -6.4910   -1.0498    0.0000 O   0  0  0  0  0  0  0  0  0  0  0  0
   -6.0416    1.5091    0.0000 C   0  0  0  0  0  0  0  0  0  0  0  0
   -5.4086    2.8690    0.0000 C   0  0  0  0  0  0  0  0  0  0  0  0
   -6.7685    3.5020    0.0000 C   0  0  0  0  0  0  0  0  0  0  0  0
   -7.4015    2.1421    0.0000 C   0  0  0  0  0  0  0  0  0  0  0  0
   -1.0954   -0.6784    0.0000 C   0  0  0  0  0  0  0  0  0  0  0  0
   -1.6094    0.7307    0.0000 C   0  0  0  0  0  0  0  0  0  0  0  0
   -0.6461    1.8805    0.0000 C   0  0  0  0  0  0  0  0  0  0  0  0
   -3.0868    0.9902    0.0000 C   0  0  0  0  0  0  0  0  0  0  0  0
    0.3819   -0.9379    0.0000 C   0  0  0  0  0  0  0  0  0  0  0  0
    0.8959   -2.3471    0.0000 C   0  0  0  0  0  0  0  0  0  0  0  0
    2.3733   -2.6065    0.0000 C   0  0  0  0  0  0  0  0  0  0  0  0
    3.3367   -1.4568    0.0000 C   0  0  0  0  0  0  0  0  0  0  0  0
    4.8331   -1.5604    0.0000 N   0  0  0  0  0  0  0  0  0  0  0  0
    5.3941   -0.1693    0.0000 C   0  0  0  0  0  0  0  0  0  0  0  0
    6.8033    0.3447    0.0000 C   0  0  0  0  0  0  0  0  0  0  0  0
    7.0627    1.8221    0.0000 C   0  0  0  0  0  0  0  0  0  0  0  0
    5.9130    2.7855    0.0000 C   0  0  0  0  0  0  0  0  0  0  0  0
    6.1725    4.2629    0.0000 C   0  0  0  0  0  0  0  0  0  0  0  0
    4.5038    2.2715    0.0000 C   0  0  0  0  0  0  0  0  0  0  0  0
    4.2444    0.7941    0.0000 C   0  0  0  0  0  0  0  0  0  0  0  0
    2.9728   -0.0016    0.0000 N   0  0  0  0  0  0  0  0  0  0  0  0
  1  2  1  0
  2  3  2  0
  3  4  1  0
  4  5  1  1
  5  6  1  0
  6  7  1  0
  7  8  2  0
  7  9  1  0
  9 10  1  0
 10 11  1  0
 11 12  1  0
  4 13  1  0
 13 14  1  6
 14 15  1  0
 14 16  1  0
 13 17  1  0
 17 18  1  0
 18 19  1  1
 19 20  1  0
 20 21  2  0
 21 22  1  0
 22 23  2  0
 23 24  1  0
 24 25  2  0
 25 26  1  0
 25 27  1  0
 27 28  2  0
 28 29  1  0
 18  2  1  0
 29 20  1  0
 12  9  1  0
 28 22  1  0
M  END
