
     RDKit          2D

 29 33  0  0  0  0  0  0  0  0999 V2000
   -5.7162    0.8885    0.0000 C   0  0  0  0  0  0  0  0  0  0  0  0
   -4.3672    0.8368    0.0000 O   0  0  0  0  0  0  0  0  0  0  0  0
   -3.5109   -0.3948    0.0000 C   0  0  0  0  0  0  0  0  0  0  0  0
   -2.7341    0.8884    0.0000 C   0  0  0  0  0  0  0  0  0  0  0  0
   -3.4569    2.2027    0.0000 O   0  0  0  0  0  0  0  0  0  0  0  0
   -1.2344    0.8572    0.0000 N   0  0  0  0  0  0  0  0  0  0  0  0
   -0.8161    2.2977    0.0000 C   0  0  0  0  0  0  0  0  0  0  0  0
    0.4983    3.0205    0.0000 C   0  0  0  0  0  0  0  0  0  0  0  0
    1.9388    2.6022    0.0000 C   0  0  0  0  0  0  0  0  0  0  0  0
    3.3954    2.9602    0.0000 C   0  0  0  0  0  0  0  0  0  0  0  0
    1.9700    4.1019    0.0000 C   0  0  0  0  0  0  0  0  0  0  0  0
    2.6616    1.2878    0.0000 C   0  0  0  0  0  0  0  0  0  0  0  0
    2.2433   -0.1526    0.0000 C   0  0  0  0  0  0  0  0  0  0  0  0
    0.9289   -0.8755    0.0000 C   0  0  0  0  0  0  0  0  0  0  0  0
   -0.5116   -0.4572    0.0000 C   0  0  0  0  0  0  0  0  0  0  0  0
   -1.2884   -1.7403    0.0000 C   0  0  0  0  0  0  0  0  0  0  0  0
   -0.5656   -3.0547    0.0000 O   0  0  0  0  0  0  0  0  0  0  0  0
   -2.7881   -1.7091    0.0000 N   0  0  0  0  0  0  0  0  0  0  0  0
   -3.8148   -2.8027    0.0000 C   0  0  0  0  0  0  0  0  0  0  0  0
   -5.1721   -2.1642    0.0000 C   0  0  0  0  0  0  0  0  0  0  0  0
   -4.9843   -0.6760    0.0000 C   0  0  0  0  0  0  0  0  0  0  0  0
   -6.0738    0.1211    0.0000 O   0  0  0  0  0  0  0  0  0  0  0  0
    3.4840   -0.9956    0.0000 C   0  0  0  0  0  0  0  0  0  0  0  0
    3.6878   -2.4817    0.0000 C   0  0  0  0  0  0  0  0  0  0  0  0
    5.0767   -3.0483    0.0000 C   0  0  0  0  0  0  0  0  0  0  0  0
    6.2618   -2.1287    0.0000 C   0  0  0  0  0  0  0  0  0  0  0  0
    6.0580   -0.6426    0.0000 C   0  0  0  0  0  0  0  0  0  0  0  0
    4.6691   -0.0761    0.0000 C   0  0  0  0  0  0  0  0  0  0  0  0
    4.1608    1.3352    0.0000 N   0  0  0  0  0  0  0  0  0  0  0  0
  1  2  1  0
  3  2  1  6
  3  4  1  0
  4  5  2  0
  4  6  1  0
  6  7  1  0
  7  8  2  0
  8  9  1  0
  9 10  1  0
  9 11  1  0
  9 12  1  0
 12 13  2  0
 13 14  1  0
 15 14  1  1
 15 16  1  0
 16 17  2  0
 16 18  1  0
 18 19  1  0
 19 20  1  0
 20 21  1  0
 21 22  1  1
 13 23  1  0
 23 24  2  0
 24 25  1  0
 25 26  2  0
 26 27  1  0
 27 28  2  0
 28 29  1  0
 18  3  1  0
 28 23  1  0
 21  3  1  0
 15  6  1  0
 29 12  1  0
M  END
