
     RDKit          2D

 29 33  0  0  0  0  0  0  0  0999 V2000
   -2.6380   -3.2645    0.0000 C   0  0  0  0  0  0  0  0  0  0  0  0
   -2.4880   -1.7720    0.0000 O   0  0  0  0  0  0  0  0  0  0  0  0
   -3.7056   -0.8959    0.0000 C   0  0  0  0  0  0  0  0  0  0  0  0
   -5.0731   -1.5123    0.0000 C   0  0  0  0  0  0  0  0  0  0  0  0
   -6.2906   -0.6362    0.0000 C   0  0  0  0  0  0  0  0  0  0  0  0
   -6.1407    0.8563    0.0000 C   0  0  0  0  0  0  0  0  0  0  0  0
   -7.3582    1.7324    0.0000 Cl  0  0  0  0  0  0  0  0  0  0  0  0
   -4.7732    1.4727    0.0000 C   0  0  0  0  0  0  0  0  0  0  0  0
   -3.5556    0.5966    0.0000 C   0  0  0  0  0  0  0  0  0  0  0  0
   -2.1881    1.2130    0.0000 N   0  0  0  0  0  0  0  0  0  0  0  0
   -0.9705    0.3369    0.0000 C   0  0  0  0  0  0  0  0  0  0  0  0
   -1.1463   -0.4407    0.0000 O   0  0  0  0  0  0  0  0  0  0  0  0
    0.3970    0.9533    0.0000 C   0  0  0  0  0  0  0  0  0  0  0  0
    0.7021    2.4219    0.0000 C   0  0  0  0  0  0  0  0  0  0  0  0
    2.1932    2.5855    0.0000 C   0  0  0  0  0  0  0  0  0  0  0  0
    3.3033    3.5943    0.0000 C   0  0  0  0  0  0  0  0  0  0  0  0
    4.6057    2.8503    0.0000 C   0  0  0  0  0  0  0  0  0  0  0  0
    4.3006    1.3816    0.0000 C   0  0  0  0  0  0  0  0  0  0  0  0
    2.8095    1.2180    0.0000 N   0  0  0  0  0  0  0  0  0  0  0  0
    1.6994    0.2092    0.0000 C   0  0  0  0  0  0  0  0  0  0  0  0
    0.5893   -0.7996    0.0000 C   0  0  0  0  0  0  0  0  0  0  0  0
   -0.2051   -0.7338    0.0000 O   0  0  0  0  0  0  0  0  0  0  0  0
    1.2057   -2.1671    0.0000 N   0  0  0  0  0  0  0  0  0  0  0  0
    2.6967   -2.0034    0.0000 C   0  0  0  0  0  0  0  0  0  0  0  0
    3.8161   -3.0020    0.0000 C   0  0  0  0  0  0  0  0  0  0  0  0
    5.2405   -2.5320    0.0000 C   0  0  0  0  0  0  0  0  0  0  0  0
    5.5456   -1.0633    0.0000 C   0  0  0  0  0  0  0  0  0  0  0  0
    4.4263   -0.0648    0.0000 C   0  0  0  0  0  0  0  0  0  0  0  0
    3.0019   -0.5348    0.0000 C   0  0  0  0  0  0  0  0  0  0  0  0
  1  2  1  0
  2  3  1  0
  3  4  2  0
  4  5  1  0
  5  6  2  0
  6  7  1  0
  6  8  1  0
  8  9  2  0
  9 10  1  0
 10 11  1  0
 11 12  2  0
 13 11  1  1
 13 14  1  0
 15 14  1  6
 15 16  1  0
 16 17  1  0
 17 18  1  0
 18 19  1  0
 20 19  1  6
 20 21  1  0
 21 22  1  0
 21 23  2  0
 23 24  1  0
 24 25  2  0
 25 26  1  0
 26 27  2  0
 27 28  1  0
 28 29  2  0
  9  3  1  0
 20 13  1  0
 29 24  1  0
 19 15  1  0
 29 20  1  0
M  END
