
     RDKit          2D

 29 33  0  0  0  0  0  0  0  0999 V2000
   -9.4926    0.8568    0.0000 C   0  0  0  0  0  0  0  0  0  0  0  0
   -8.0091    1.0786    0.0000 N   0  0  0  0  0  0  0  0  0  0  0  0
   -6.9576    0.0088    0.0000 C   0  0  0  0  0  0  0  0  0  0  0  0
   -5.6153    0.6782    0.0000 C   0  0  0  0  0  0  0  0  0  0  0  0
   -4.2847   -0.0143    0.0000 C   0  0  0  0  0  0  0  0  0  0  0  0
   -4.2192   -1.5128    0.0000 C   0  0  0  0  0  0  0  0  0  0  0  0
   -2.8886   -2.2053    0.0000 C   0  0  0  0  0  0  0  0  0  0  0  0
   -1.6236   -1.3993    0.0000 C   0  0  0  0  0  0  0  0  0  0  0  0
   -0.6897   -2.5731    0.0000 N   0  0  0  0  0  0  0  0  0  0  0  0
    0.7558   -2.9738    0.0000 C   0  0  0  0  0  0  0  0  0  0  0  0
    0.8214   -4.4724    0.0000 O   0  0  0  0  0  0  0  0  0  0  0  0
    2.1607   -2.4484    0.0000 C   0  0  0  0  0  0  0  0  0  0  0  0
    2.9885   -1.1975    0.0000 C   0  0  0  0  0  0  0  0  0  0  0  0
    4.3191   -1.8900    0.0000 C   0  0  0  0  0  0  0  0  0  0  0  0
    5.5841   -1.0839    0.0000 C   0  0  0  0  0  0  0  0  0  0  0  0
    5.5186    0.4146    0.0000 N   0  0  0  0  0  0  0  0  0  0  0  0
    6.7836    1.2207    0.0000 C   0  0  0  0  0  0  0  0  0  0  0  0
    8.2481    0.8962    0.0000 C   0  0  0  0  0  0  0  0  0  0  0  0
    8.5726    2.3606    0.0000 O   0  0  0  0  0  0  0  0  0  0  0  0
    7.1081    2.6852    0.0000 C   0  0  0  0  0  0  0  0  0  0  0  0
    4.1880    1.1071    0.0000 C   0  0  0  0  0  0  0  0  0  0  0  0
    2.9230    0.3011    0.0000 C   0  0  0  0  0  0  0  0  0  0  0  0
    1.9891    1.4749    0.0000 C   0  0  0  0  0  0  0  0  0  0  0  0
    0.5436    1.8756    0.0000 C   0  0  0  0  0  0  0  0  0  0  0  0
   -0.8613    1.3502    0.0000 O   0  0  0  0  0  0  0  0  0  0  0  0
   -1.6891    0.0993    0.0000 C   0  0  0  0  0  0  0  0  0  0  0  0
   -3.0197    0.7918    0.0000 C   0  0  0  0  0  0  0  0  0  0  0  0
   -5.8372    2.1617    0.0000 C   0  0  0  0  0  0  0  0  0  0  0  0
   -7.3166    2.4092    0.0000 N   0  0  0  0  0  0  0  0  0  0  0  0
  1  2  1  0
  2  3  1  0
  3  4  2  0
  4  5  1  0
  5  6  2  0
  6  7  1  0
  7  8  2  0
  8  9  1  0
  9 10  1  0
 10 11  2  0
 10 12  1  0
 13 12  1  1
 13 14  1  0
 14 15  1  0
 15 16  1  0
 16 17  1  0
 17 18  1  0
 18 19  1  0
 19 20  1  0
 16 21  1  0
 22 21  1  1
 22 23  1  0
 23 24  1  0
 24 25  1  0
 25 26  1  0
 26 27  2  0
  4 28  1  0
 28 29  2  0
 29  2  1  0
 27  5  1  0
 26  8  1  0
 22 13  1  0
 20 17  1  0
M  END
