
     RDKit          2D

 29 31  0  0  0  0  0  0  0  0999 V2000
    3.4881   -4.5145    0.0000 C   0  0  0  0  0  0  0  0  0  0  0  0
    2.7497   -3.2088    0.0000 C   0  0  0  0  0  0  0  0  0  0  0  0
    1.2974   -3.5841    0.0000 C   0  0  0  0  0  0  0  0  0  0  0  0
   -0.1479   -3.1829    0.0000 C   0  0  0  0  0  0  0  0  0  0  0  0
   -1.1991   -2.1129    0.0000 C   0  0  0  0  0  0  0  0  0  0  0  0
   -1.3692   -3.6032    0.0000 C   0  0  0  0  0  0  0  0  0  0  0  0
   -2.4643   -2.9186    0.0000 C   0  0  0  0  0  0  0  0  0  0  0  0
   -3.6216   -1.9642    0.0000 C   0  0  0  0  0  0  0  0  0  0  0  0
   -3.0716   -0.5687    0.0000 C   0  0  0  0  0  0  0  0  0  0  0  0
   -3.8773    0.6965    0.0000 C   0  0  0  0  0  0  0  0  0  0  0  0
   -5.3759    0.6314    0.0000 C   0  0  0  0  0  0  0  0  0  0  0  0
   -6.0688   -0.6990    0.0000 O   0  0  0  0  0  0  0  0  0  0  0  0
   -6.1816    1.8966    0.0000 O   0  0  0  0  0  0  0  0  0  0  0  0
   -3.1844    2.0269    0.0000 C   0  0  0  0  0  0  0  0  0  0  0  0
   -1.6858    2.0920    0.0000 O   0  0  0  0  0  0  0  0  0  0  0  0
   -3.9901    3.2921    0.0000 O   0  0  0  0  0  0  0  0  0  0  0  0
   -1.5744   -0.6606    0.0000 C   0  0  0  0  0  0  0  0  0  0  0  0
   -1.1733    0.7848    0.0000 C   0  0  0  0  0  0  0  0  0  0  0  0
   -0.1032    1.8360    0.0000 C   0  0  0  0  0  0  0  0  0  0  0  0
    1.3491    2.2112    0.0000 C   0  0  0  0  0  0  0  0  0  0  0  0
    1.3625    3.7112    0.0000 C   0  0  0  0  0  0  0  0  0  0  0  0
    2.7945    1.8101    0.0000 C   0  0  0  0  0  0  0  0  0  0  0  0
    3.4874    3.1405    0.0000 C   0  0  0  0  0  0  0  0  0  0  0  0
    4.9667    2.8926    0.0000 C   0  0  0  0  0  0  0  0  0  0  0  0
    5.1882    1.4091    0.0000 C   0  0  0  0  0  0  0  0  0  0  0  0
    6.5185    0.7162    0.0000 C   0  0  0  0  0  0  0  0  0  0  0  0
    3.8456    0.7400    0.0000 C   0  0  0  0  0  0  0  0  0  0  0  0
    4.2209   -0.7123    0.0000 C   0  0  0  0  0  0  0  0  0  0  0  0
    3.8198   -2.1576    0.0000 C   0  0  0  0  0  0  0  0  0  0  0  0
  1  2  1  0
  2  3  2  0
  3  4  1  0
  4  5  1  0
  5  6  1  1
  5  7  1  0
  7  8  1  0
  8  9  1  0
  9 10  1  1
 10 11  1  0
 11 12  2  0
 11 13  1  0
 10 14  1  0
 14 15  2  0
 14 16  1  0
  9 17  1  0
 17 18  1  1
 18 19  1  0
 19 20  2  0
 20 21  1  0
 20 22  1  0
 22 23  1  6
 23 24  1  0
 24 25  1  0
 25 26  1  6
 25 27  1  0
 27 28  2  0
 28 29  1  0
 29  2  1  0
 17  5  1  0
 27 22  1  0
M  END
