
     RDKit          2D

 29 30  0  0  0  0  0  0  0  0999 V2000
    4.7851    2.5431    0.0000 C   0  0  0  0  0  0  0  0  0  0  0  0
    3.7342    3.6135    0.0000 C   0  0  0  0  0  0  0  0  0  0  0  0
    2.2818    3.2385    0.0000 C   0  0  0  0  0  0  0  0  0  0  0  0
    1.2309    4.3089    0.0000 C   0  0  0  0  0  0  0  0  0  0  0  0
    1.8803    1.7933    0.0000 C   0  0  0  0  0  0  0  0  0  0  0  0
    2.9312    0.7229    0.0000 O   0  0  0  0  0  0  0  0  0  0  0  0
    0.4279    1.4183    0.0000 O   0  0  0  0  0  0  0  0  0  0  0  0
    0.0264   -0.0269    0.0000 C   0  0  0  0  0  0  0  0  0  0  0  0
   -1.4259   -0.4019    0.0000 C   0  0  0  0  0  0  0  0  0  0  0  0
   -1.9763   -1.7973    0.0000 C   0  0  0  0  0  0  0  0  0  0  0  0
   -1.1709   -3.0627    0.0000 C   0  0  0  0  0  0  0  0  0  0  0  0
   -3.4735   -1.7050    0.0000 C   0  0  0  0  0  0  0  0  0  0  0  0
   -4.4281   -2.8621    0.0000 O   0  0  0  0  0  0  0  0  0  0  0  0
   -3.8484   -0.2526    0.0000 O   0  0  0  0  0  0  0  0  0  0  0  0
   -2.5830    0.5527    0.0000 C   0  0  0  0  0  0  0  0  0  0  0  0
   -2.4907    2.0499    0.0000 O   0  0  0  0  0  0  0  0  0  0  0  0
   -3.7412    2.8784    0.0000 C   0  0  0  0  0  0  0  0  0  0  0  0
   -3.6490    4.3755    0.0000 C   0  0  0  0  0  0  0  0  0  0  0  0
   -5.0839    2.2097    0.0000 O   0  0  0  0  0  0  0  0  0  0  0  0
    1.0773   -1.0973    0.0000 C   0  0  0  0  0  0  0  0  0  0  0  0
    1.9489    0.1235    0.0000 C   0  0  0  0  0  0  0  0  0  0  0  0
    2.4309   -1.7436    0.0000 C   0  0  0  0  0  0  0  0  0  0  0  0
    3.6675   -0.8946    0.0000 C   0  0  0  0  0  0  0  0  0  0  0  0
    5.0211   -1.5409    0.0000 O   0  0  0  0  0  0  0  0  0  0  0  0
    2.5480   -3.2391    0.0000 C   0  0  0  0  0  0  0  0  0  0  0  0
    1.3114   -4.0881    0.0000 C   0  0  0  0  0  0  0  0  0  0  0  0
   -0.0422   -3.4418    0.0000 C   0  0  0  0  0  0  0  0  0  0  0  0
   -0.1592   -1.9463    0.0000 C   0  0  0  0  0  0  0  0  0  0  0  0
   -1.2307   -1.7279    0.0000 C   0  0  0  0  0  0  0  0  0  0  0  0
  1  2  1  0
  2  3  2  0
  3  4  1  0
  3  5  1  0
  5  6  2  0
  5  7  1  0
  8  7  1  1
  8  9  1  0
  9 10  2  0
 10 11  1  0
 10 12  1  0
 12 13  2  0
 12 14  1  0
 14 15  1  0
 15 16  1  6
 16 17  1  0
 17 18  1  0
 17 19  2  0
  8 20  1  0
 20 21  1  6
 20 22  1  0
 22 23  1  0
 23 24  2  0
 22 25  2  0
 25 26  1  0
 26 27  1  0
 27 28  1  0
 28 29  1  6
 15  9  1  0
 28 20  1  0
M  END
