
     RDKit          2D

 29 32  0  0  0  0  0  0  0  0999 V2000
    4.3761    3.9605    0.0000 C   0  0  0  0  0  0  0  0  0  0  0  0
    3.0970    3.1770    0.0000 C   0  0  0  0  0  0  0  0  0  0  0  0
    1.7789    3.8929    0.0000 O   0  0  0  0  0  0  0  0  0  0  0  0
    3.1361    1.6775    0.0000 O   0  0  0  0  0  0  0  0  0  0  0  0
    1.8570    0.8939    0.0000 C   0  0  0  0  0  0  0  0  0  0  0  0
    0.5389    1.6098    0.0000 C   0  0  0  0  0  0  0  0  0  0  0  0
    0.4998    3.1093    0.0000 O   0  0  0  0  0  0  0  0  0  0  0  0
   -0.7402    0.8263    0.0000 C   0  0  0  0  0  0  0  0  0  0  0  0
   -2.0583    1.5422    0.0000 C   0  0  0  0  0  0  0  0  0  0  0  0
   -2.0974    3.0417    0.0000 C   0  0  0  0  0  0  0  0  0  0  0  0
   -3.3374    0.7586    0.0000 C   0  0  0  0  0  0  0  0  0  0  0  0
   -4.7756    1.1849    0.0000 C   0  0  0  0  0  0  0  0  0  0  0  0
   -5.6254   -0.0512    0.0000 C   0  0  0  0  0  0  0  0  0  0  0  0
   -7.1248   -0.0903    0.0000 O   0  0  0  0  0  0  0  0  0  0  0  0
   -4.7124   -1.2414    0.0000 O   0  0  0  0  0  0  0  0  0  0  0  0
   -3.2983   -0.7409    0.0000 C   0  0  0  0  0  0  0  0  0  0  0  0
   -3.4162   -2.2362    0.0000 O   0  0  0  0  0  0  0  0  0  0  0  0
   -1.9802   -1.4568    0.0000 C   0  0  0  0  0  0  0  0  0  0  0  0
   -0.7012   -0.6732    0.0000 C   0  0  0  0  0  0  0  0  0  0  0  0
    0.6170   -1.3891    0.0000 C   0  0  0  0  0  0  0  0  0  0  0  0
   -0.6621   -2.1727    0.0000 C   0  0  0  0  0  0  0  0  0  0  0  0
    0.6560   -2.8886    0.0000 C   0  0  0  0  0  0  0  0  0  0  0  0
    1.9741   -3.6046    0.0000 C   0  0  0  0  0  0  0  0  0  0  0  0
    3.2532   -2.8210    0.0000 C   0  0  0  0  0  0  0  0  0  0  0  0
    3.2142   -1.3215    0.0000 C   0  0  0  0  0  0  0  0  0  0  0  0
    3.6903    0.1009    0.0000 C   0  0  0  0  0  0  0  0  0  0  0  0
    4.6977   -1.5434    0.0000 C   0  0  0  0  0  0  0  0  0  0  0  0
    5.2472   -2.9391    0.0000 O   0  0  0  0  0  0  0  0  0  0  0  0
    1.8960   -0.6056    0.0000 C   0  0  0  0  0  0  0  0  0  0  0  0
  1  2  1  0
  2  3  2  0
  2  4  1  0
  5  4  1  1
  5  6  1  0
  6  7  1  1
  6  8  1  0
  8  9  1  1
  9 10  1  1
  9 11  1  0
 11 12  2  0
 12 13  1  0
 13 14  2  0
 13 15  1  0
 15 16  1  0
 16 17  1  6
 16 18  1  0
 19 18  1  1
 19 20  1  0
 20 21  1  6
 20 22  1  0
 22 23  1  0
 23 24  1  0
 24 25  1  0
 25 26  1  6
 25 27  1  0
 27 28  1  0
 29 25  1  1
 29  5  1  0
 19  8  1  0
 29 20  1  0
 16 11  1  0
M  END
