
     RDKit          2D

 29 32  0  0  0  0  0  0  0  0999 V2000
    8.1182   -1.8668    0.0000 C   0  0  0  0  0  0  0  0  0  0  0  0
    7.5533   -0.4772    0.0000 C   0  0  0  0  0  0  0  0  0  0  0  0
    8.3454    0.7966    0.0000 C   0  0  0  0  0  0  0  0  0  0  0  0
    7.3788    1.9436    0.0000 O   0  0  0  0  0  0  0  0  0  0  0  0
    5.9892    1.3787    0.0000 C   0  0  0  0  0  0  0  0  0  0  0  0
    4.6396    2.0333    0.0000 C   0  0  0  0  0  0  0  0  0  0  0  0
    3.3979    1.1919    0.0000 C   0  0  0  0  0  0  0  0  0  0  0  0
    3.5057   -0.3042    0.0000 C   0  0  0  0  0  0  0  0  0  0  0  0
    4.8553   -0.9589    0.0000 C   0  0  0  0  0  0  0  0  0  0  0  0
    6.0971   -0.1175    0.0000 C   0  0  0  0  0  0  0  0  0  0  0  0
    2.2640   -1.1457    0.0000 C   0  0  0  0  0  0  0  0  0  0  0  0
    2.3718   -2.6418    0.0000 C   0  0  0  0  0  0  0  0  0  0  0  0
    0.9144   -0.4910    0.0000 C   0  0  0  0  0  0  0  0  0  0  0  0
   -0.3274   -1.3325    0.0000 C   0  0  0  0  0  0  0  0  0  0  0  0
   -1.6770   -0.6778    0.0000 C   0  0  0  0  0  0  0  0  0  0  0  0
   -2.9187   -1.5193    0.0000 C   0  0  0  0  0  0  0  0  0  0  0  0
   -2.8109   -3.0154    0.0000 O   0  0  0  0  0  0  0  0  0  0  0  0
   -4.2683   -0.8646    0.0000 N   0  0  0  0  0  0  0  0  0  0  0  0
   -4.3762    0.6315    0.0000 C   0  0  0  0  0  0  0  0  0  0  0  0
   -5.7258    1.2861    0.0000 C   0  0  0  0  0  0  0  0  0  0  0  0
   -6.9675    0.4447    0.0000 C   0  0  0  0  0  0  0  0  0  0  0  0
   -8.3171    1.0994    0.0000 C   0  0  0  0  0  0  0  0  0  0  0  0
   -9.5589    0.2579    0.0000 O   0  0  0  0  0  0  0  0  0  0  0  0
   -8.4250    2.5955    0.0000 O   0  0  0  0  0  0  0  0  0  0  0  0
   -6.8597   -1.0514    0.0000 C   0  0  0  0  0  0  0  0  0  0  0  0
   -5.5101   -1.7061    0.0000 C   0  0  0  0  0  0  0  0  0  0  0  0
    0.8065    1.0051    0.0000 C   0  0  0  0  0  0  0  0  0  0  0  0
   -0.5431    1.6597    0.0000 O   0  0  0  0  0  0  0  0  0  0  0  0
    2.0483    1.8465    0.0000 O   0  0  0  0  0  0  0  0  0  0  0  0
  1  2  1  0
  2  3  2  0
  3  4  1  0
  4  5  1  0
  5  6  2  0
  6  7  1  0
  7  8  2  0
  8  9  1  0
  9 10  2  0
  8 11  1  0
 11 12  1  0
 11 13  2  0
 13 14  1  0
 14 15  1  0
 15 16  1  0
 16 17  2  0
 16 18  1  0
 18 19  1  0
 19 20  1  0
 20 21  1  0
 21 22  1  0
 22 23  2  0
 22 24  1  0
 21 25  1  0
 25 26  1  0
 13 27  1  0
 27 28  2  0
 27 29  1  0
 10  2  1  0
 26 18  1  0
 10  5  1  0
 29  7  1  0
M  END
