
     RDKit          2D

 29 31  0  0  0  0  0  0  0  0999 V2000
   -6.5320    2.4288    0.0000 C   0  0  0  0  0  0  0  0  0  0  0  0
   -6.0844    0.9971    0.0000 O   0  0  0  0  0  0  0  0  0  0  0  0
   -4.6208    0.6689    0.0000 C   0  0  0  0  0  0  0  0  0  0  0  0
   -3.6047    1.7724    0.0000 C   0  0  0  0  0  0  0  0  0  0  0  0
   -2.1411    1.4441    0.0000 C   0  0  0  0  0  0  0  0  0  0  0  0
   -1.1250    2.5476    0.0000 O   0  0  0  0  0  0  0  0  0  0  0  0
   -1.5726    3.9793    0.0000 C   0  0  0  0  0  0  0  0  0  0  0  0
   -1.6935    0.0125    0.0000 C   0  0  0  0  0  0  0  0  0  0  0  0
   -0.2298   -0.3157    0.0000 C   0  0  0  0  0  0  0  0  0  0  0  0
    0.2178   -1.7474    0.0000 C   0  0  0  0  0  0  0  0  0  0  0  0
   -0.7983   -2.8508    0.0000 O   0  0  0  0  0  0  0  0  0  0  0  0
   -2.2619   -2.5226    0.0000 C   0  0  0  0  0  0  0  0  0  0  0  0
    1.6814   -2.0756    0.0000 C   0  0  0  0  0  0  0  0  0  0  0  0
    2.1290   -3.5073    0.0000 O   0  0  0  0  0  0  0  0  0  0  0  0
    2.6975   -0.9721    0.0000 C   0  0  0  0  0  0  0  0  0  0  0  0
    4.1611   -1.3003    0.0000 C   0  0  0  0  0  0  0  0  0  0  0  0
    4.6087   -2.7320    0.0000 O   0  0  0  0  0  0  0  0  0  0  0  0
    5.1772   -0.1969    0.0000 C   0  0  0  0  0  0  0  0  0  0  0  0
    6.6409   -0.5251    0.0000 O   0  0  0  0  0  0  0  0  0  0  0  0
    4.7296    1.2348    0.0000 C   0  0  0  0  0  0  0  0  0  0  0  0
    5.7457    2.3382    0.0000 O   0  0  0  0  0  0  0  0  0  0  0  0
    5.2981    3.7699    0.0000 C   0  0  0  0  0  0  0  0  0  0  0  0
    3.2660    1.5630    0.0000 C   0  0  0  0  0  0  0  0  0  0  0  0
    2.2499    0.4595    0.0000 C   0  0  0  0  0  0  0  0  0  0  0  0
    0.7862    0.7877    0.0000 O   0  0  0  0  0  0  0  0  0  0  0  0
   -2.7095   -1.0910    0.0000 C   0  0  0  0  0  0  0  0  0  0  0  0
   -4.1732   -0.7628    0.0000 C   0  0  0  0  0  0  0  0  0  0  0  0
   -5.1893   -1.8662    0.0000 O   0  0  0  0  0  0  0  0  0  0  0  0
   -6.6529   -1.5380    0.0000 C   0  0  0  0  0  0  0  0  0  0  0  0
  1  2  1  0
  2  3  1  0
  3  4  2  0
  4  5  1  0
  5  6  1  0
  6  7  1  0
  5  8  2  0
  8  9  1  0
  9 10  2  0
 10 11  1  0
 11 12  1  0
 10 13  1  0
 13 14  2  0
 13 15  1  0
 15 16  2  0
 16 17  1  0
 16 18  1  0
 18 19  1  0
 18 20  2  0
 20 21  1  0
 21 22  1  0
 20 23  1  0
 23 24  2  0
 24 25  1  0
  8 26  1  0
 26 27  2  0
 27 28  1  0
 28 29  1  0
 27  3  1  0
 25  9  1  0
 24 15  1  0
M  END
