
     RDKit          2D

 29 32  0  0  0  0  0  0  0  0999 V2000
    2.5240    3.3369    0.0000 C   0  0  0  0  0  0  0  0  0  0  0  0
    2.4773    1.8376    0.0000 C   0  0  0  0  0  0  0  0  0  0  0  0
    1.1555    1.1284    0.0000 C   0  0  0  0  0  0  0  0  0  0  0  0
   -0.1195    1.9184    0.0000 C   0  0  0  0  0  0  0  0  0  0  0  0
   -1.4413    1.2092    0.0000 C   0  0  0  0  0  0  0  0  0  0  0  0
   -2.7163    1.9993    0.0000 C   0  0  0  0  0  0  0  0  0  0  0  0
   -2.6697    3.4986    0.0000 O   0  0  0  0  0  0  0  0  0  0  0  0
   -4.0381    1.2901    0.0000 C   0  0  0  0  0  0  0  0  0  0  0  0
   -5.3132    2.0802    0.0000 O   0  0  0  0  0  0  0  0  0  0  0  0
   -4.0848   -0.2092    0.0000 C   0  0  0  0  0  0  0  0  0  0  0  0
   -5.4065   -0.9184    0.0000 C   0  0  0  0  0  0  0  0  0  0  0  0
   -6.6816   -0.1283    0.0000 N   0  0  0  0  0  0  0  0  0  0  0  0
   -5.4532   -2.4176    0.0000 O   0  0  0  0  0  0  0  0  0  0  0  0
   -2.8097   -0.9992    0.0000 C   0  0  0  0  0  0  0  0  0  0  0  0
   -2.8564   -2.4985    0.0000 O   0  0  0  0  0  0  0  0  0  0  0  0
   -1.4880   -0.2900    0.0000 C   0  0  0  0  0  0  0  0  0  0  0  0
   -1.5347   -1.7893    0.0000 O   0  0  0  0  0  0  0  0  0  0  0  0
   -0.2129   -1.0801    0.0000 C   0  0  0  0  0  0  0  0  0  0  0  0
   -0.2596   -2.5794    0.0000 O   0  0  0  0  0  0  0  0  0  0  0  0
    1.1089   -0.3709    0.0000 C   0  0  0  0  0  0  0  0  0  0  0  0
    2.3839   -1.1610    0.0000 C   0  0  0  0  0  0  0  0  0  0  0  0
    2.3372   -2.6602    0.0000 O   0  0  0  0  0  0  0  0  0  0  0  0
    3.7057   -0.4518    0.0000 C   0  0  0  0  0  0  0  0  0  0  0  0
    4.9807   -1.2418    0.0000 C   0  0  0  0  0  0  0  0  0  0  0  0
    4.9340   -2.7411    0.0000 O   0  0  0  0  0  0  0  0  0  0  0  0
    6.3025   -0.5326    0.0000 C   0  0  0  0  0  0  0  0  0  0  0  0
    6.3492    0.9666    0.0000 C   0  0  0  0  0  0  0  0  0  0  0  0
    5.0741    1.7567    0.0000 C   0  0  0  0  0  0  0  0  0  0  0  0
    3.7524    1.0475    0.0000 C   0  0  0  0  0  0  0  0  0  0  0  0
  1  2  1  0
  2  3  2  0
  3  4  1  0
  5  4  1  6
  5  6  1  0
  6  7  2  0
  6  8  1  0
  8  9  1  0
  8 10  2  0
 10 11  1  0
 11 12  1  0
 11 13  2  0
 10 14  1  0
 14 15  2  0
 14 16  1  0
 16 17  1  1
 16 18  1  0
 18 19  2  0
 18 20  1  0
 20 21  2  0
 21 22  1  0
 21 23  1  0
 23 24  2  0
 24 25  1  0
 24 26  1  0
 26 27  2  0
 27 28  1  0
 28 29  2  0
 29  2  1  0
 20  3  1  0
 29 23  1  0
 16  5  1  0
M  END
