
     RDKit          2D

 29 34  0  0  0  0  0  0  0  0999 V2000
    1.9015    1.7379    0.0000 C   0  0  0  0  0  0  0  0  0  0  0  0
    2.8585    0.5829    0.0000 C   0  0  0  0  0  0  0  0  0  0  0  0
    3.3802    1.9893    0.0000 C   0  0  0  0  0  0  0  0  0  0  0  0
    4.8590    2.2406    0.0000 C   0  0  0  0  0  0  0  0  0  0  0  0
    5.8161    1.0857    0.0000 C   0  0  0  0  0  0  0  0  0  0  0  0
    7.2949    1.3370    0.0000 O   0  0  0  0  0  0  0  0  0  0  0  0
    5.2944   -0.3207    0.0000 C   0  0  0  0  0  0  0  0  0  0  0  0
    3.8156   -0.5721    0.0000 C   0  0  0  0  0  0  0  0  0  0  0  0
    4.7727   -1.7271    0.0000 O   0  0  0  0  0  0  0  0  0  0  0  0
    3.2939   -1.9784    0.0000 C   0  0  0  0  0  0  0  0  0  0  0  0
    1.8151   -2.2298    0.0000 C   0  0  0  0  0  0  0  0  0  0  0  0
    0.3363   -2.4811    0.0000 O   0  0  0  0  0  0  0  0  0  0  0  0
    0.8580   -1.0748    0.0000 C   0  0  0  0  0  0  0  0  0  0  0  0
    1.3798    0.3316    0.0000 C   0  0  0  0  0  0  0  0  0  0  0  0
    0.4227    1.4865    0.0000 C   0  0  0  0  0  0  0  0  0  0  0  0
   -1.0561    1.2352    0.0000 C   0  0  0  0  0  0  0  0  0  0  0  0
   -1.5778   -0.1712    0.0000 C   0  0  0  0  0  0  0  0  0  0  0  0
   -2.6504    0.8774    0.0000 C   0  0  0  0  0  0  0  0  0  0  0  0
   -2.9720   -0.7245    0.0000 C   0  0  0  0  0  0  0  0  0  0  0  0
   -4.2392    0.0782    0.0000 C   0  0  0  0  0  0  0  0  0  0  0  0
   -5.6334   -0.4751    0.0000 C   0  0  0  0  0  0  0  0  0  0  0  0
   -6.5905    0.6798    0.0000 C   0  0  0  0  0  0  0  0  0  0  0  0
   -8.0874    0.5844    0.0000 O   0  0  0  0  0  0  0  0  0  0  0  0
   -5.7878    1.9470    0.0000 O   0  0  0  0  0  0  0  0  0  0  0  0
   -4.3346    1.5752    0.0000 C   0  0  0  0  0  0  0  0  0  0  0  0
   -2.8766   -2.2215    0.0000 C   0  0  0  0  0  0  0  0  0  0  0  0
   -1.4234   -2.5933    0.0000 C   0  0  0  0  0  0  0  0  0  0  0  0
   -0.6207   -1.3262    0.0000 C   0  0  0  0  0  0  0  0  0  0  0  0
   -0.2489    0.1270    0.0000 O   0  0  0  0  0  0  0  0  0  0  0  0
  1  2  1  0
  2  3  1  0
  3  4  1  0
  4  5  1  0
  5  6  1  0
  5  7  1  0
  7  8  1  0
  8  9  1  0
  8 10  1  0
 10 11  1  0
 11 12  1  0
 12 13  1  0
 13 14  1  0
 14 15  1  0
 15 16  1  0
 16 17  1  0
 17 18  1  0
 17 19  1  0
 19 20  1  0
 20 21  2  0
 21 22  1  0
 22 23  2  0
 22 24  1  0
 24 25  1  0
 19 26  1  0
 26 27  1  0
 27 28  1  0
 28 29  1  0
  8  2  1  0
 13 11  1  0
 28 17  1  0
 14  2  1  0
 25 20  1  0
 28 13  1  0
M  END
