
     RDKit          2D

 29 34  0  0  0  0  0  0  0  0999 V2000
    6.5428   -0.1210    0.0000 C   0  0  0  0  0  0  0  0  0  0  0  0
    5.0482    0.0065    0.0000 C   0  0  0  0  0  0  0  0  0  0  0  0
    4.0666   -1.1277    0.0000 C   0  0  0  0  0  0  0  0  0  0  0  0
    4.4072   -2.5885    0.0000 O   0  0  0  0  0  0  0  0  0  0  0  0
    2.6846   -0.5446    0.0000 C   0  0  0  0  0  0  0  0  0  0  0  0
    2.8121    0.9499    0.0000 C   0  0  0  0  0  0  0  0  0  0  0  0
    1.5815    1.8076    0.0000 O   0  0  0  0  0  0  0  0  0  0  0  0
    0.2234    1.1708    0.0000 C   0  0  0  0  0  0  0  0  0  0  0  0
   -1.0072    2.0284    0.0000 O   0  0  0  0  0  0  0  0  0  0  0  0
   -2.3653    1.3916    0.0000 C   0  0  0  0  0  0  0  0  0  0  0  0
   -3.5959    2.2493    0.0000 O   0  0  0  0  0  0  0  0  0  0  0  0
   -2.4928   -0.1030    0.0000 C   0  0  0  0  0  0  0  0  0  0  0  0
   -3.8509   -0.7399    0.0000 O   0  0  0  0  0  0  0  0  0  0  0  0
   -5.0815    0.1178    0.0000 C   0  0  0  0  0  0  0  0  0  0  0  0
   -6.4395   -0.5191    0.0000 C   0  0  0  0  0  0  0  0  0  0  0  0
   -4.9540    1.6124    0.0000 O   0  0  0  0  0  0  0  0  0  0  0  0
   -1.2622   -0.9607    0.0000 C   0  0  0  0  0  0  0  0  0  0  0  0
   -0.8224   -0.8222    0.0000 C   0  0  0  0  0  0  0  0  0  0  0  0
   -2.0206   -3.8161    0.0000 C   0  0  0  0  0  0  0  0  0  0  0  0
   -2.8394   -2.0702    0.0000 C   0  0  0  0  0  0  0  0  0  0  0  0
   -1.0480   -0.9640    0.0000 C   0  0  0  0  0  0  0  0  0  0  0  0
   -0.0385   -0.4906    0.0000 C   0  0  0  0  0  0  0  0  0  0  0  0
   -0.2919   -0.5734    0.0000 C   0  0  0  0  0  0  0  0  0  0  0  0
    0.0959   -0.3238    0.0000 C   0  0  0  0  0  0  0  0  0  0  0  0
    1.3265   -1.1815    0.0000 C   0  0  0  0  0  0  0  0  0  0  0  0
    1.7142    0.8395    0.0000 C   0  0  0  0  0  0  0  0  0  0  0  0
    0.4708    1.6784    0.0000 O   0  0  0  0  0  0  0  0  0  0  0  0
    2.8634    1.8036    0.0000 C   0  0  0  0  0  0  0  0  0  0  0  0
    4.2729    1.2905    0.0000 C   0  0  0  0  0  0  0  0  0  0  0  0
  1  2  2  0
  2  3  1  0
  3  4  1  1
  5  3  1  6
  5  6  1  0
  6  7  1  1
  8  7  1  6
  8  9  1  0
  9 10  1  0
 10 11  1  6
 10 12  1  0
 12 13  1  6
 13 14  1  0
 14 15  1  0
 14 16  2  0
 12 17  1  0
 17 18  1  1
 18 19  1  0
 18 20  1  0
 18 21  1  0
 21 22  1  0
 22 23  1  0
 24 23  1  6
 24 25  1  0
 25 26  1  1
 26 27  1  1
 26 28  1  0
 29 28  1  1
 29  2  1  0
 10  5  1  0
 24 17  1  0
 25  5  1  0
 29  6  1  0
 24  8  1  0
M  END
