
     RDKit          2D

 29 30  0  0  0  0  0  0  0  0999 V2000
    4.8983   -4.1537    0.0000 C   0  0  0  0  0  0  0  0  0  0  0  0
    3.4955   -3.6225    0.0000 C   0  0  0  0  0  0  0  0  0  0  0  0
    2.3341   -4.5719    0.0000 C   0  0  0  0  0  0  0  0  0  0  0  0
    3.2541   -2.1421    0.0000 C   0  0  0  0  0  0  0  0  0  0  0  0
    1.8512   -1.6110    0.0000 C   0  0  0  0  0  0  0  0  0  0  0  0
    1.6098   -0.1305    0.0000 C   0  0  0  0  0  0  0  0  0  0  0  0
    0.2070    0.4006    0.0000 C   0  0  0  0  0  0  0  0  0  0  0  0
   -0.9544   -0.5487    0.0000 C   0  0  0  0  0  0  0  0  0  0  0  0
   -2.3572   -0.0176    0.0000 C   0  0  0  0  0  0  0  0  0  0  0  0
   -3.5186   -0.9669    0.0000 C   0  0  0  0  0  0  0  0  0  0  0  0
   -4.9214   -0.4357    0.0000 C   0  0  0  0  0  0  0  0  0  0  0  0
   -5.1629    1.0447    0.0000 C   0  0  0  0  0  0  0  0  0  0  0  0
   -6.5657    1.5758    0.0000 C   0  0  0  0  0  0  0  0  0  0  0  0
   -7.7271    0.6265    0.0000 C   0  0  0  0  0  0  0  0  0  0  0  0
   -9.1299    1.1577    0.0000 O   0  0  0  0  0  0  0  0  0  0  0  0
   -7.4856   -0.8539    0.0000 C   0  0  0  0  0  0  0  0  0  0  0  0
   -6.0828   -1.3851    0.0000 C   0  0  0  0  0  0  0  0  0  0  0  0
   -5.8414   -2.8655    0.0000 O   0  0  0  0  0  0  0  0  0  0  0  0
   -0.0344    1.8811    0.0000 C   0  0  0  0  0  0  0  0  0  0  0  0
    1.1269    2.8304    0.0000 C   0  0  0  0  0  0  0  0  0  0  0  0
    0.8855    4.3108    0.0000 O   0  0  0  0  0  0  0  0  0  0  0  0
    2.5298    2.2992    0.0000 C   0  0  0  0  0  0  0  0  0  0  0  0
    3.6911    3.2485    0.0000 O   0  0  0  0  0  0  0  0  0  0  0  0
    2.7712    0.8188    0.0000 C   0  0  0  0  0  0  0  0  0  0  0  0
    4.1740    0.2877    0.0000 C   0  0  0  0  0  0  0  0  0  0  0  0
    5.3354    1.2370    0.0000 C   0  0  0  0  0  0  0  0  0  0  0  0
    6.7382    0.7058    0.0000 C   0  0  0  0  0  0  0  0  0  0  0  0
    7.8996    1.6551    0.0000 C   0  0  0  0  0  0  0  0  0  0  0  0
    6.9796   -0.7746    0.0000 C   0  0  0  0  0  0  0  0  0  0  0  0
  1  2  1  0
  2  3  1  0
  2  4  2  0
  4  5  1  0
  5  6  1  0
  6  7  2  0
  7  8  1  0
  8  9  1  0
  9 10  1  0
 10 11  1  0
 11 12  2  0
 12 13  1  0
 13 14  2  0
 14 15  1  0
 14 16  1  0
 16 17  2  0
 17 18  1  0
  7 19  1  0
 19 20  2  0
 20 21  1  0
 20 22  1  0
 22 23  1  0
 22 24  2  0
 24 25  1  0
 25 26  1  0
 26 27  2  0
 27 28  1  0
 27 29  1  0
 24  6  1  0
 17 11  1  0
M  END
