
     RDKit          2D

 29 32  0  0  0  0  0  0  0  0999 V2000
   -4.7033    4.1635    0.0000 C   0  0  0  0  0  0  0  0  0  0  0  0
   -4.4022    2.6941    0.0000 C   0  0  0  0  0  0  0  0  0  0  0  0
   -2.9790    2.2201    0.0000 C   0  0  0  0  0  0  0  0  0  0  0  0
   -5.5242    1.6986    0.0000 C   0  0  0  0  0  0  0  0  0  0  0  0
   -6.9474    2.1725    0.0000 C   0  0  0  0  0  0  0  0  0  0  0  0
   -5.2231    0.2291    0.0000 C   0  0  0  0  0  0  0  0  0  0  0  0
   -3.7999   -0.2448    0.0000 C   0  0  0  0  0  0  0  0  0  0  0  0
   -3.4988   -1.7143    0.0000 C   0  0  0  0  0  0  0  0  0  0  0  0
   -4.6209   -2.7098    0.0000 C   0  0  0  0  0  0  0  0  0  0  0  0
   -2.0757   -2.1883    0.0000 C   0  0  0  0  0  0  0  0  0  0  0  0
   -1.6226   -3.6182    0.0000 C   0  0  0  0  0  0  0  0  0  0  0  0
   -0.1226   -3.6292    0.0000 C   0  0  0  0  0  0  0  0  0  0  0  0
    0.3513   -2.2060    0.0000 C   0  0  0  0  0  0  0  0  0  0  0  0
    1.7261   -1.6060    0.0000 C   0  0  0  0  0  0  0  0  0  0  0  0
    2.9331   -2.4965    0.0000 C   0  0  0  0  0  0  0  0  0  0  0  0
    4.3078   -1.8965    0.0000 C   0  0  0  0  0  0  0  0  0  0  0  0
    4.4756   -0.4059    0.0000 C   0  0  0  0  0  0  0  0  0  0  0  0
    5.8503    0.1942    0.0000 C   0  0  0  0  0  0  0  0  0  0  0  0
    6.0180    1.6848    0.0000 C   0  0  0  0  0  0  0  0  0  0  0  0
    7.3928    2.2848    0.0000 O   0  0  0  0  0  0  0  0  0  0  0  0
    4.8110    2.5753    0.0000 C   0  0  0  0  0  0  0  0  0  0  0  0
    3.4362    1.9753    0.0000 C   0  0  0  0  0  0  0  0  0  0  0  0
    3.2685    0.4847    0.0000 C   0  0  0  0  0  0  0  0  0  0  0  0
    2.0615    1.3752    0.0000 C   0  0  0  0  0  0  0  0  0  0  0  0
    1.8938   -0.1154    0.0000 C   0  0  0  0  0  0  0  0  0  0  0  0
    0.6867    0.7751    0.0000 C   0  0  0  0  0  0  0  0  0  0  0  0
   -0.6880    0.1751    0.0000 C   0  0  0  0  0  0  0  0  0  0  0  0
   -0.8557   -1.3155    0.0000 C   0  0  0  0  0  0  0  0  0  0  0  0
   -2.1492   -0.5560    0.0000 C   0  0  0  0  0  0  0  0  0  0  0  0
  1  2  1  0
  2  3  1  0
  2  4  1  0
  4  5  1  1
  4  6  1  0
  6  7  1  0
  7  8  1  0
  8  9  1  6
  8 10  1  0
 10 11  1  0
 11 12  1  0
 12 13  1  0
 13 14  1  0
 14 15  1  0
 15 16  1  0
 17 16  1  6
 17 18  1  0
 18 19  1  0
 19 20  2  0
 19 21  1  0
 21 22  1  0
 22 23  1  0
 23 24  1  6
 23 25  1  0
 25 26  1  0
 26 27  1  0
 27 28  1  0
 28 29  1  6
 28 10  1  0
 28 13  1  0
 25 14  1  0
 23 17  1  0
M  END
