
     RDKit          2D

 29 30  0  0  0  0  0  0  0  0999 V2000
    4.2834   -2.4606    0.0000 O   0  0  0  0  0  0  0  0  0  0  0  0
    4.2938   -0.9606    0.0000 C   0  0  0  0  0  0  0  0  0  0  0  0
    5.5979   -0.2196    0.0000 C   0  0  0  0  0  0  0  0  0  0  0  0
    6.8918   -0.9785    0.0000 C   0  0  0  0  0  0  0  0  0  0  0  0
    8.1959   -0.2375    0.0000 C   0  0  0  0  0  0  0  0  0  0  0  0
    9.4898   -0.9964    0.0000 C   0  0  0  0  0  0  0  0  0  0  0  0
   10.7940   -0.2553    0.0000 C   0  0  0  0  0  0  0  0  0  0  0  0
   10.8043    1.2446    0.0000 C   0  0  0  0  0  0  0  0  0  0  0  0
   12.1084    1.9857    0.0000 O   0  0  0  0  0  0  0  0  0  0  0  0
    9.5104    2.0036    0.0000 C   0  0  0  0  0  0  0  0  0  0  0  0
    8.2063    1.2625    0.0000 C   0  0  0  0  0  0  0  0  0  0  0  0
    2.9999   -0.2017    0.0000 O   0  0  0  0  0  0  0  0  0  0  0  0
    1.6957   -0.9427    0.0000 C   0  0  0  0  0  0  0  0  0  0  0  0
    0.4019   -0.1838    0.0000 C   0  0  0  0  0  0  0  0  0  0  0  0
    0.4122    1.3162    0.0000 O   0  0  0  0  0  0  0  0  0  0  0  0
   -0.9023   -0.9248    0.0000 C   0  0  0  0  0  0  0  0  0  0  0  0
   -2.1961   -0.1659    0.0000 O   0  0  0  0  0  0  0  0  0  0  0  0
   -3.5003   -0.9070    0.0000 C   0  0  0  0  0  0  0  0  0  0  0  0
   -3.5106   -2.4069    0.0000 O   0  0  0  0  0  0  0  0  0  0  0  0
   -4.7941   -0.1480    0.0000 C   0  0  0  0  0  0  0  0  0  0  0  0
   -6.0983   -0.8891    0.0000 C   0  0  0  0  0  0  0  0  0  0  0  0
   -7.3921   -0.1302    0.0000 C   0  0  0  0  0  0  0  0  0  0  0  0
   -7.3818    1.3698    0.0000 C   0  0  0  0  0  0  0  0  0  0  0  0
   -8.6757    2.1287    0.0000 C   0  0  0  0  0  0  0  0  0  0  0  0
   -9.9798    1.3877    0.0000 C   0  0  0  0  0  0  0  0  0  0  0  0
  -11.2737    2.1466    0.0000 O   0  0  0  0  0  0  0  0  0  0  0  0
   -9.9902   -0.1123    0.0000 C   0  0  0  0  0  0  0  0  0  0  0  0
  -11.2943   -0.8533    0.0000 O   0  0  0  0  0  0  0  0  0  0  0  0
   -8.6963   -0.8712    0.0000 C   0  0  0  0  0  0  0  0  0  0  0  0
  1  2  2  0
  2  3  1  0
  3  4  2  0
  4  5  1  0
  5  6  2  0
  6  7  1  0
  7  8  2  0
  8  9  1  0
  8 10  1  0
 10 11  2  0
  2 12  1  0
 12 13  1  0
 13 14  1  0
 14 15  1  1
 14 16  1  0
 16 17  1  0
 17 18  1  0
 18 19  2  0
 18 20  1  0
 20 21  2  0
 21 22  1  0
 22 23  2  0
 23 24  1  0
 24 25  2  0
 25 26  1  0
 25 27  1  0
 27 28  1  0
 27 29  2  0
 11  5  1  0
 29 22  1  0
M  END
