
     RDKit          2D

 29 30  0  0  0  0  0  0  0  0999 V2000
   -4.2132   -4.1692    0.0000 C   0  0  0  0  0  0  0  0  0  0  0  0
   -3.3944   -2.9124    0.0000 C   0  0  0  0  0  0  0  0  0  0  0  0
   -4.0734   -1.5749    0.0000 C   0  0  0  0  0  0  0  0  0  0  0  0
   -1.8965   -2.9931    0.0000 C   0  0  0  0  0  0  0  0  0  0  0  0
   -1.0777   -1.7363    0.0000 C   0  0  0  0  0  0  0  0  0  0  0  0
    0.4201   -1.8170    0.0000 N   0  0  0  0  0  0  0  0  0  0  0  0
    1.2389   -0.5602    0.0000 C   0  0  0  0  0  0  0  0  0  0  0  0
    0.5599    0.7773    0.0000 O   0  0  0  0  0  0  0  0  0  0  0  0
    2.7367   -0.6409    0.0000 N   0  0  0  0  0  0  0  0  0  0  0  0
    3.4158   -1.9784    0.0000 C   0  0  0  0  0  0  0  0  0  0  0  0
    4.9136   -2.0591    0.0000 C   0  0  0  0  0  0  0  0  0  0  0  0
    5.5926   -3.3966    0.0000 O   0  0  0  0  0  0  0  0  0  0  0  0
    5.7324   -0.8023    0.0000 N   0  0  0  0  0  0  0  0  0  0  0  0
    5.0534    0.5352    0.0000 C   0  0  0  0  0  0  0  0  0  0  0  0
    5.8722    1.7920    0.0000 C   0  0  0  0  0  0  0  0  0  0  0  0
    5.1931    3.1295    0.0000 C   0  0  0  0  0  0  0  0  0  0  0  0
    3.6953    3.2102    0.0000 C   0  0  0  0  0  0  0  0  0  0  0  0
    2.8765    1.9534    0.0000 C   0  0  0  0  0  0  0  0  0  0  0  0
    3.5555    0.6159    0.0000 C   0  0  0  0  0  0  0  0  0  0  0  0
   -1.7568   -0.3988    0.0000 C   0  0  0  0  0  0  0  0  0  0  0  0
   -0.9380    0.8580    0.0000 O   0  0  0  0  0  0  0  0  0  0  0  0
   -3.2546   -0.3181    0.0000 N   0  0  0  0  0  0  0  0  0  0  0  0
   -3.9336    1.0194    0.0000 C   0  0  0  0  0  0  0  0  0  0  0  0
   -3.1148    2.2762    0.0000 C   0  0  0  0  0  0  0  0  0  0  0  0
   -1.6170    2.1955    0.0000 O   0  0  0  0  0  0  0  0  0  0  0  0
   -3.7938    3.6137    0.0000 O   0  0  0  0  0  0  0  0  0  0  0  0
   -5.4314    1.1001    0.0000 C   0  0  0  0  0  0  0  0  0  0  0  0
   -6.1105    2.4376    0.0000 C   0  0  0  0  0  0  0  0  0  0  0  0
   -6.2502   -0.1567    0.0000 O   0  0  0  0  0  0  0  0  0  0  0  0
  1  2  1  0
  2  3  1  0
  2  4  1  0
  5  4  1  1
  5  6  1  0
  6  7  1  0
  7  8  2  0
  7  9  1  0
  9 10  1  0
 10 11  1  0
 11 12  2  0
 11 13  1  0
 13 14  1  0
 14 15  2  0
 15 16  1  0
 16 17  2  0
 17 18  1  0
 18 19  2  0
  5 20  1  0
 20 21  2  0
 20 22  1  0
 23 22  1  1
 23 24  1  0
 24 25  2  0
 24 26  1  0
 23 27  1  0
 27 28  1  1
 27 29  1  0
 19  9  1  0
 19 14  1  0
M  END
