
     RDKit          2D

 29 32  0  0  0  0  0  0  0  0999 V2000
    0.3270    6.9135    0.0000 C   0  0  0  0  0  0  0  0  0  0  0  0
   -0.3653    5.5828    0.0000 C   0  0  0  0  0  0  0  0  0  0  0  0
    0.4410    4.3179    0.0000 O   0  0  0  0  0  0  0  0  0  0  0  0
   -0.2512    2.9872    0.0000 C   0  0  0  0  0  0  0  0  0  0  0  0
   -1.7498    2.9214    0.0000 O   0  0  0  0  0  0  0  0  0  0  0  0
    0.5551    1.7224    0.0000 C   0  0  0  0  0  0  0  0  0  0  0  0
    2.0523    1.6312    0.0000 O   0  0  0  0  0  0  0  0  0  0  0  0
    2.4283    0.1791    0.0000 C   0  0  0  0  0  0  0  0  0  0  0  0
    1.1635   -0.6272    0.0000 C   0  0  0  0  0  0  0  0  0  0  0  0
    1.2293   -2.1258    0.0000 C   0  0  0  0  0  0  0  0  0  0  0  0
   -0.0355   -2.9321    0.0000 O   0  0  0  0  0  0  0  0  0  0  0  0
    2.5600   -2.8180    0.0000 O   0  0  0  0  0  0  0  0  0  0  0  0
    3.8249   -2.0117    0.0000 C   0  0  0  0  0  0  0  0  0  0  0  0
    5.1556   -2.7039    0.0000 C   0  0  0  0  0  0  0  0  0  0  0  0
    6.4205   -1.8976    0.0000 C   0  0  0  0  0  0  0  0  0  0  0  0
    6.3546   -0.3991    0.0000 C   0  0  0  0  0  0  0  0  0  0  0  0
    5.0239    0.2932    0.0000 C   0  0  0  0  0  0  0  0  0  0  0  0
    3.7590   -0.5132    0.0000 C   0  0  0  0  0  0  0  0  0  0  0  0
    0.0057    0.3266    0.0000 C   0  0  0  0  0  0  0  0  0  0  0  0
   -1.4464   -0.0494    0.0000 C   0  0  0  0  0  0  0  0  0  0  0  0
   -2.4980    1.0202    0.0000 C   0  0  0  0  0  0  0  0  0  0  0  0
   -3.9502    0.6442    0.0000 C   0  0  0  0  0  0  0  0  0  0  0  0
   -4.3506   -0.8014    0.0000 C   0  0  0  0  0  0  0  0  0  0  0  0
   -5.8027   -1.1774    0.0000 O   0  0  0  0  0  0  0  0  0  0  0  0
   -6.8544   -0.1078    0.0000 C   0  0  0  0  0  0  0  0  0  0  0  0
   -3.2989   -1.8710    0.0000 C   0  0  0  0  0  0  0  0  0  0  0  0
   -3.6994   -3.3165    0.0000 O   0  0  0  0  0  0  0  0  0  0  0  0
   -5.1515   -3.6925    0.0000 C   0  0  0  0  0  0  0  0  0  0  0  0
   -1.8468   -1.4950    0.0000 C   0  0  0  0  0  0  0  0  0  0  0  0
  1  2  1  0
  2  3  1  0
  3  4  1  0
  4  5  2  0
  6  4  1  1
  6  7  1  0
  7  8  1  0
  8  9  2  0
  9 10  1  0
 10 11  2  0
 10 12  1  0
 12 13  1  0
 13 14  2  0
 14 15  1  0
 15 16  2  0
 16 17  1  0
 17 18  2  0
  9 19  1  0
 19 20  1  6
 20 21  2  0
 21 22  1  0
 22 23  2  0
 23 24  1  0
 24 25  1  0
 23 26  1  0
 26 27  1  0
 27 28  1  0
 26 29  2  0
 19  6  1  0
 29 20  1  0
 18  8  1  0
 18 13  1  0
M  END
