
     RDKit          2D

 29 32  0  0  0  0  0  0  0  0999 V2000
    0.9430   -0.7620    0.0000 C   0  0  0  0  0  0  0  0  0  0  0  0
   -0.2651    0.1270    0.0000 N   0  0  0  0  0  0  0  0  0  0  0  0
    0.0117    1.6013    0.0000 C   0  0  0  0  0  0  0  0  0  0  0  0
    1.4600    1.9915    0.0000 C   0  0  0  0  0  0  0  0  0  0  0  0
    2.5222    0.9324    0.0000 C   0  0  0  0  0  0  0  0  0  0  0  0
    3.9705    1.3226    0.0000 C   0  0  0  0  0  0  0  0  0  0  0  0
    4.3567    2.7721    0.0000 O   0  0  0  0  0  0  0  0  0  0  0  0
    5.0327    0.2635    0.0000 N   0  0  0  0  0  0  0  0  0  0  0  0
    6.4810    0.6537    0.0000 C   0  0  0  0  0  0  0  0  0  0  0  0
    7.5432   -0.4054    0.0000 C   0  0  0  0  0  0  0  0  0  0  0  0
    9.0244   -0.1687    0.0000 C   0  0  0  0  0  0  0  0  0  0  0  0
    9.7072   -1.5043    0.0000 C   0  0  0  0  0  0  0  0  0  0  0  0
    8.6481   -2.5664    0.0000 C   0  0  0  0  0  0  0  0  0  0  0  0
    7.3106   -1.8873    0.0000 S   0  0  0  0  0  0  0  0  0  0  0  0
   -0.9683    2.7369    0.0000 C   0  0  0  0  0  0  0  0  0  0  0  0
   -2.4672    2.6787    0.0000 N   0  0  0  0  0  0  0  0  0  0  0  0
   -3.3562    1.4705    0.0000 C   0  0  0  0  0  0  0  0  0  0  0  0
   -4.8305    1.7473    0.0000 O   0  0  0  0  0  0  0  0  0  0  0  0
   -2.9660    0.0222    0.0000 C   0  0  0  0  0  0  0  0  0  0  0  0
   -1.5903   -0.5757    0.0000 C   0  0  0  0  0  0  0  0  0  0  0  0
   -1.7338   -2.0688    0.0000 C   0  0  0  0  0  0  0  0  0  0  0  0
   -3.1982   -2.3937    0.0000 C   0  0  0  0  0  0  0  0  0  0  0  0
   -3.9597   -1.1014    0.0000 N   0  0  0  0  0  0  0  0  0  0  0  0
   -5.4529   -0.9579    0.0000 C   0  0  0  0  0  0  0  0  0  0  0  0
   -6.0751    0.4070    0.0000 C   0  0  0  0  0  0  0  0  0  0  0  0
   -7.5682    0.5505    0.0000 C   0  0  0  0  0  0  0  0  0  0  0  0
   -8.4391   -0.6708    0.0000 C   0  0  0  0  0  0  0  0  0  0  0  0
   -7.8168   -2.0356    0.0000 C   0  0  0  0  0  0  0  0  0  0  0  0
   -6.3237   -2.1792    0.0000 C   0  0  0  0  0  0  0  0  0  0  0  0
  1  2  1  0
  2  3  1  0
  3  4  1  6
  4  5  1  0
  5  6  1  0
  6  7  2  0
  6  8  1  0
  8  9  1  0
  9 10  1  0
 10 11  2  0
 11 12  1  0
 12 13  2  0
 13 14  1  0
  3 15  1  0
 15 16  1  0
 16 17  1  0
 17 18  2  0
 17 19  1  0
 19 20  1  0
 20 21  1  6
 21 22  1  0
 22 23  1  0
 23 24  1  0
 24 25  1  0
 25 26  1  0
 26 27  1  0
 27 28  1  0
 28 29  1  0
 20  2  1  0
 29 24  1  0
 14 10  1  0
 19 23  1  6
M  END
