
     RDKit          2D

 29 31  0  0  0  0  0  0  0  0999 V2000
   -4.4768    3.5573    0.0000 C   0  0  0  0  0  0  0  0  0  0  0  0
   -4.5071    2.0576    0.0000 O   0  0  0  0  0  0  0  0  0  0  0  0
   -3.2234    1.2815    0.0000 C   0  0  0  0  0  0  0  0  0  0  0  0
   -1.9095    2.0052    0.0000 C   0  0  0  0  0  0  0  0  0  0  0  0
   -0.6259    1.2291    0.0000 C   0  0  0  0  0  0  0  0  0  0  0  0
    0.6880    1.9527    0.0000 C   0  0  0  0  0  0  0  0  0  0  0  0
    1.9717    1.1767    0.0000 C   0  0  0  0  0  0  0  0  0  0  0  0
    1.9414   -0.3230    0.0000 C   0  0  0  0  0  0  0  0  0  0  0  0
    3.2250   -1.0991    0.0000 C   0  0  0  0  0  0  0  0  0  0  0  0
    3.1948   -2.5988    0.0000 O   0  0  0  0  0  0  0  0  0  0  0  0
    4.5389   -0.3754    0.0000 C   0  0  0  0  0  0  0  0  0  0  0  0
    4.5692    1.1243    0.0000 C   0  0  0  0  0  0  0  0  0  0  0  0
    5.1106    2.5232    0.0000 C   0  0  0  0  0  0  0  0  0  0  0  0
    6.0409    0.8341    0.0000 O   0  0  0  0  0  0  0  0  0  0  0  0
    6.5253   -0.5855    0.0000 C   0  0  0  0  0  0  0  0  0  0  0  0
    7.9970   -0.8758    0.0000 C   0  0  0  0  0  0  0  0  0  0  0  0
    5.5382   -1.7149    0.0000 O   0  0  0  0  0  0  0  0  0  0  0  0
    3.2856    1.9003    0.0000 C   0  0  0  0  0  0  0  0  0  0  0  0
    0.6275   -1.0466    0.0000 C   0  0  0  0  0  0  0  0  0  0  0  0
    0.5972   -2.5463    0.0000 O   0  0  0  0  0  0  0  0  0  0  0  0
   -0.6562   -0.2706    0.0000 C   0  0  0  0  0  0  0  0  0  0  0  0
   -1.9701   -0.9942    0.0000 C   0  0  0  0  0  0  0  0  0  0  0  0
   -2.0003   -2.4939    0.0000 O   0  0  0  0  0  0  0  0  0  0  0  0
   -3.2537   -0.2182    0.0000 C   0  0  0  0  0  0  0  0  0  0  0  0
   -4.5676   -0.9418    0.0000 C   0  0  0  0  0  0  0  0  0  0  0  0
   -5.8512   -0.1658    0.0000 C   0  0  0  0  0  0  0  0  0  0  0  0
   -7.1652   -0.8894    0.0000 C   0  0  0  0  0  0  0  0  0  0  0  0
   -8.4488   -0.1134    0.0000 C   0  0  0  0  0  0  0  0  0  0  0  0
   -7.1954   -2.3891    0.0000 C   0  0  0  0  0  0  0  0  0  0  0  0
  1  2  1  0
  2  3  1  0
  3  4  2  0
  4  5  1  0
  5  6  2  0
  6  7  1  0
  7  8  2  0
  8  9  1  0
  9 10  2  0
  9 11  1  0
 11 12  1  0
 12 13  1  1
 12 14  1  0
 14 15  1  0
 15 16  1  0
 15 17  2  0
 12 18  1  0
  8 19  1  0
 19 20  1  0
 19 21  2  0
 21 22  1  0
 22 23  1  0
 22 24  2  0
 24 25  1  0
 25 26  2  0
 26 27  1  0
 27 28  1  0
 27 29  1  0
 24  3  1  0
 21  5  1  0
 18  7  1  0
M  END
