
     RDKit          2D

 29 31  0  0  0  0  0  0  0  0999 V2000
  -10.0893    1.4117    0.0000 C   0  0  0  0  0  0  0  0  0  0  0  0
   -9.3365    0.1142    0.0000 O   0  0  0  0  0  0  0  0  0  0  0  0
   -7.8365    0.1175    0.0000 C   0  0  0  0  0  0  0  0  0  0  0  0
   -7.0893    1.4181    0.0000 C   0  0  0  0  0  0  0  0  0  0  0  0
   -5.5893    1.4214    0.0000 C   0  0  0  0  0  0  0  0  0  0  0  0
   -4.8365    0.1240    0.0000 C   0  0  0  0  0  0  0  0  0  0  0  0
   -3.3365    0.1272    0.0000 C   0  0  0  0  0  0  0  0  0  0  0  0
   -2.5893    1.4278    0.0000 O   0  0  0  0  0  0  0  0  0  0  0  0
   -2.5837   -1.1702    0.0000 N   0  0  0  0  0  0  0  0  0  0  0  0
   -1.0837   -1.1670    0.0000 C   0  0  0  0  0  0  0  0  0  0  0  0
   -0.3309   -2.4644    0.0000 C   0  0  0  0  0  0  0  0  0  0  0  0
    1.1691   -2.4612    0.0000 C   0  0  0  0  0  0  0  0  0  0  0  0
    1.9163   -1.1605    0.0000 C   0  0  0  0  0  0  0  0  0  0  0  0
    3.4163   -1.1573    0.0000 C   0  0  0  0  0  0  0  0  0  0  0  0
    4.1691   -2.4547    0.0000 O   0  0  0  0  0  0  0  0  0  0  0  0
    5.6691   -2.4515    0.0000 C   0  0  0  0  0  0  0  0  0  0  0  0
    6.4163   -1.1508    0.0000 C   0  0  0  0  0  0  0  0  0  0  0  0
    7.9163   -1.1476    0.0000 O   0  0  0  0  0  0  0  0  0  0  0  0
    5.6635    0.1466    0.0000 N   0  0  0  0  0  0  0  0  0  0  0  0
    6.4107    1.4473    0.0000 C   0  0  0  0  0  0  0  0  0  0  0  0
    5.6579    2.7447    0.0000 C   0  0  0  0  0  0  0  0  0  0  0  0
    6.4051    4.0453    0.0000 N   0  0  0  0  0  0  0  0  0  0  0  0
    4.1635    0.1434    0.0000 C   0  0  0  0  0  0  0  0  0  0  0  0
    3.4107    1.4408    0.0000 C   0  0  0  0  0  0  0  0  0  0  0  0
    4.1579    2.7414    0.0000 O   0  0  0  0  0  0  0  0  0  0  0  0
    1.1635    0.1369    0.0000 C   0  0  0  0  0  0  0  0  0  0  0  0
   -0.3365    0.1337    0.0000 C   0  0  0  0  0  0  0  0  0  0  0  0
   -5.5837   -1.1767    0.0000 C   0  0  0  0  0  0  0  0  0  0  0  0
   -7.0837   -1.1799    0.0000 C   0  0  0  0  0  0  0  0  0  0  0  0
  1  2  1  0
  2  3  1  0
  3  4  2  0
  4  5  1  0
  5  6  2  0
  6  7  1  0
  7  8  2  0
  7  9  1  0
  9 10  1  0
 10 11  2  0
 11 12  1  0
 12 13  2  0
 14 13  1  6
 14 15  1  0
 15 16  1  0
 16 17  1  0
 17 18  2  0
 17 19  1  0
 19 20  1  0
 20 21  1  0
 21 22  1  0
 19 23  1  0
 23 24  1  1
 24 25  1  0
 13 26  1  0
 26 27  2  0
  6 28  1  0
 28 29  2  0
 29  3  1  0
 27 10  1  0
 23 14  1  0
M  END
