
     RDKit          2D

 30 29  0  0  0  0  0  0  0  0999 V2000
  -12.6281    0.9072    0.0000 C   0  0  0  0  0  0  0  0  0  0  0  0
  -11.3446    0.1309    0.0000 C   0  0  0  0  0  0  0  0  0  0  0  0
  -10.0306    0.8543    0.0000 C   0  0  0  0  0  0  0  0  0  0  0  0
   -8.7471    0.0780    0.0000 C   0  0  0  0  0  0  0  0  0  0  0  0
   -7.4330    0.8014    0.0000 C   0  0  0  0  0  0  0  0  0  0  0  0
   -7.4025    2.3011    0.0000 O   0  0  0  0  0  0  0  0  0  0  0  0
   -6.1495    0.0252    0.0000 C   0  0  0  0  0  0  0  0  0  0  0  0
   -6.1801   -1.4745    0.0000 O   0  0  0  0  0  0  0  0  0  0  0  0
   -4.8355    0.7486    0.0000 C   0  0  0  0  0  0  0  0  0  0  0  0
   -3.5520   -0.0277    0.0000 C   0  0  0  0  0  0  0  0  0  0  0  0
   -2.2380    0.6957    0.0000 C   0  0  0  0  0  0  0  0  0  0  0  0
   -0.9545   -0.0806    0.0000 C   0  0  0  0  0  0  0  0  0  0  0  0
    0.3596    0.6428    0.0000 C   0  0  0  0  0  0  0  0  0  0  0  0
    1.6431   -0.1335    0.0000 C   0  0  0  0  0  0  0  0  0  0  0  0
    2.9571    0.5899    0.0000 C   0  0  0  0  0  0  0  0  0  0  0  0
    4.2406   -0.1863    0.0000 C   0  0  0  0  0  0  0  0  0  0  0  0
    5.5546    0.5371    0.0000 C   0  0  0  0  0  0  0  0  0  0  0  0
    6.8381   -0.2392    0.0000 C   0  0  0  0  0  0  0  0  0  0  0  0
    8.1522    0.4842    0.0000 C   0  0  0  0  0  0  0  0  0  0  0  0
    9.4357   -0.2921    0.0000 C   0  0  0  0  0  0  0  0  0  0  0  0
    9.4052   -1.7918    0.0000 O   0  0  0  0  0  0  0  0  0  0  0  0
   10.7497    0.4313    0.0000 O   0  0  0  0  0  0  0  0  0  0  0  0
    5.5852    2.0368    0.0000 N   0  0  0  0  0  0  0  0  0  0  0  0
    6.8992    2.7602    0.0000 C   0  0  0  0  0  0  0  0  0  0  0  0
    6.9297    4.2599    0.0000 C   0  0  0  0  0  0  0  0  0  0  0  0
   -0.9850   -1.5803    0.0000 C   0  0  0  0  0  0  0  0  0  0  0  0
    0.2985   -2.3566    0.0000 C   0  0  0  0  0  0  0  0  0  0  0  0
    1.6125   -1.6332    0.0000 O   0  0  0  0  0  0  0  0  0  0  0  0
    0.2680   -3.8563    0.0000 C   0  0  0  0  0  0  0  0  0  0  0  0
    1.5515   -4.6325    0.0000 O   0  0  0  0  0  0  0  0  0  0  0  0
  1  2  1  0
  2  3  1  0
  3  4  1  0
  4  5  1  0
  5  6  1  6
  5  7  1  0
  7  8  1  1
  7  9  1  0
  9 10  2  0
 10 11  1  0
 11 12  2  0
 12 13  1  0
 13 14  1  0
 14 15  1  0
 15 16  1  0
 17 16  1  1
 17 18  1  0
 18 19  1  0
 19 20  1  0
 20 21  2  0
 20 22  1  0
 17 23  1  0
 23 24  1  0
 24 25  1  0
 12 26  1  0
 26 27  1  0
 27 28  1  6
 27 29  1  0
 29 30  1  0
M  END
