
     RDKit          2D

 30 34  0  0  0  0  0  0  0  0999 V2000
    5.8543   -1.1150    0.0000 C   0  0  0  0  0  0  0  0  0  0  0  0
    4.3548   -1.0736    0.0000 C   0  0  0  0  0  0  0  0  0  0  0  0
    3.6410    0.2457    0.0000 C   0  0  0  0  0  0  0  0  0  0  0  0
    5.0276    0.8177    0.0000 C   0  0  0  0  0  0  0  0  0  0  0  0
    6.2163   -0.0972    0.0000 O   0  0  0  0  0  0  0  0  0  0  0  0
    2.4036   -0.6022    0.0000 N   0  0  0  0  0  0  0  0  0  0  0  0
    1.2149    0.3127    0.0000 C   0  0  0  0  0  0  0  0  0  0  0  0
   -0.2035   -0.1754    0.0000 C   0  0  0  0  0  0  0  0  0  0  0  0
   -1.4694    0.6292    0.0000 C   0  0  0  0  0  0  0  0  0  0  0  0
   -2.8587    1.1949    0.0000 C   0  0  0  0  0  0  0  0  0  0  0  0
   -3.2177    2.6513    0.0000 O   0  0  0  0  0  0  0  0  0  0  0  0
   -3.8260    0.0484    0.0000 N   0  0  0  0  0  0  0  0  0  0  0  0
   -5.3220    0.1571    0.0000 O   0  0  0  0  0  0  0  0  0  0  0  0
   -5.9760    1.5070    0.0000 C   0  0  0  0  0  0  0  0  0  0  0  0
   -3.0345   -1.2258    0.0000 C   0  0  0  0  0  0  0  0  0  0  0  0
   -3.4518   -2.6666    0.0000 C   0  0  0  0  0  0  0  0  0  0  0  0
   -2.4128   -3.7484    0.0000 C   0  0  0  0  0  0  0  0  0  0  0  0
   -0.9563   -3.3894    0.0000 C   0  0  0  0  0  0  0  0  0  0  0  0
   -0.5390   -1.9486    0.0000 C   0  0  0  0  0  0  0  0  0  0  0  0
   -1.5781   -0.8668    0.0000 C   0  0  0  0  0  0  0  0  0  0  0  0
   -1.6297    2.1207    0.0000 C   0  0  0  0  0  0  0  0  0  0  0  0
   -0.5635    3.1758    0.0000 O   0  0  0  0  0  0  0  0  0  0  0  0
    0.9262    3.0001    0.0000 C   0  0  0  0  0  0  0  0  0  0  0  0
    1.7176    1.7259    0.0000 C   0  0  0  0  0  0  0  0  0  0  0  0
    3.2170    1.6845    0.0000 C   0  0  0  0  0  0  0  0  0  0  0  0
   -0.3420    1.3513    0.0000 C   0  0  0  0  0  0  0  0  0  0  0  0
   -0.4764   -0.1426    0.0000 O   0  0  0  0  0  0  0  0  0  0  0  0
    0.7502   -1.0060    0.0000 C   0  0  0  0  0  0  0  0  0  0  0  0
    0.6157   -2.5000    0.0000 C   0  0  0  0  0  0  0  0  0  0  0  0
    1.9182   -0.0649    0.0000 O   0  0  0  0  0  0  0  0  0  0  0  0
  1  2  1  0
  3  2  1  1
  3  4  1  0
  4  5  1  0
  3  6  1  0
  7  6  1  1
  7  8  1  0
  8  9  1  0
  9 10  1  6
 10 11  2  0
 10 12  1  0
 12 13  1  0
 13 14  1  0
 12 15  1  0
 15 16  2  0
 16 17  1  0
 17 18  2  0
 18 19  1  0
 19 20  2  0
  9 21  1  0
 21 22  1  6
 22 23  1  0
 24 23  1  1
 24 25  1  0
 25 26  1  0
 26 27  1  6
 27 28  1  0
 28 29  1  0
 28 30  2  0
 25  3  1  6
 24  7  1  0
 20  9  1  0
 26 21  1  0
 20 15  1  0
M  END
