
     RDKit          2D

 30 33  0  0  0  0  0  0  0  0999 V2000
   -2.6967    3.4699    0.0000 C   0  0  0  0  0  0  0  0  0  0  0  0
   -3.7066    2.3608    0.0000 O   0  0  0  0  0  0  0  0  0  0  0  0
   -3.2511    0.9317    0.0000 C   0  0  0  0  0  0  0  0  0  0  0  0
   -1.7856    0.6116    0.0000 C   0  0  0  0  0  0  0  0  0  0  0  0
   -1.3301   -0.8176    0.0000 C   0  0  0  0  0  0  0  0  0  0  0  0
    0.1354   -1.1376    0.0000 C   0  0  0  0  0  0  0  0  0  0  0  0
    0.5909   -2.5668    0.0000 N   0  0  0  0  0  0  0  0  0  0  0  0
    2.0564   -2.8868    0.0000 C   0  0  0  0  0  0  0  0  0  0  0  0
    2.5119   -4.3160    0.0000 C   0  0  0  0  0  0  0  0  0  0  0  0
    3.9774   -4.6360    0.0000 C   0  0  0  0  0  0  0  0  0  0  0  0
    4.9873   -3.5269    0.0000 C   0  0  0  0  0  0  0  0  0  0  0  0
    4.5317   -2.0978    0.0000 C   0  0  0  0  0  0  0  0  0  0  0  0
    3.0663   -1.7777    0.0000 C   0  0  0  0  0  0  0  0  0  0  0  0
    2.6107   -0.3486    0.0000 C   0  0  0  0  0  0  0  0  0  0  0  0
    3.6207    0.7605    0.0000 O   0  0  0  0  0  0  0  0  0  0  0  0
    1.1453   -0.0285    0.0000 N   0  0  0  0  0  0  0  0  0  0  0  0
    0.6897    1.4006    0.0000 C   0  0  0  0  0  0  0  0  0  0  0  0
    1.6996    2.5097    0.0000 C   0  0  0  0  0  0  0  0  0  0  0  0
    3.1651    2.1897    0.0000 C   0  0  0  0  0  0  0  0  0  0  0  0
    4.1750    3.2988    0.0000 C   0  0  0  0  0  0  0  0  0  0  0  0
    3.7195    4.7279    0.0000 C   0  0  0  0  0  0  0  0  0  0  0  0
    2.2540    5.0480    0.0000 C   0  0  0  0  0  0  0  0  0  0  0  0
    1.2441    3.9389    0.0000 C   0  0  0  0  0  0  0  0  0  0  0  0
   -2.3400   -1.9266    0.0000 C   0  0  0  0  0  0  0  0  0  0  0  0
   -3.8054   -1.6066    0.0000 C   0  0  0  0  0  0  0  0  0  0  0  0
   -4.8153   -2.7157    0.0000 O   0  0  0  0  0  0  0  0  0  0  0  0
   -6.2808   -2.3956    0.0000 C   0  0  0  0  0  0  0  0  0  0  0  0
   -4.2610   -0.1774    0.0000 C   0  0  0  0  0  0  0  0  0  0  0  0
   -5.7264    0.1426    0.0000 O   0  0  0  0  0  0  0  0  0  0  0  0
   -6.1820    1.5718    0.0000 C   0  0  0  0  0  0  0  0  0  0  0  0
  1  2  1  0
  2  3  1  0
  3  4  2  0
  4  5  1  0
  6  5  1  6
  6  7  1  0
  7  8  1  0
  8  9  2  0
  9 10  1  0
 10 11  2  0
 11 12  1  0
 12 13  2  0
 13 14  1  0
 14 15  2  0
 14 16  1  0
 16 17  1  0
 17 18  1  0
 18 19  2  0
 19 20  1  0
 20 21  2  0
 21 22  1  0
 22 23  2  0
  5 24  2  0
 24 25  1  0
 25 26  1  0
 26 27  1  0
 25 28  2  0
 28 29  1  0
 29 30  1  0
 28  3  1  0
 16  6  1  0
 23 18  1  0
 13  8  1  0
M  END
