
     RDKit          2D

 30 33  0  0  0  0  0  0  0  0999 V2000
    0.9033   -4.6942    0.0000 C   0  0  0  0  0  0  0  0  0  0  0  0
    0.4242   -3.2728    0.0000 C   0  0  0  0  0  0  0  0  0  0  0  0
   -1.0463   -2.9769    0.0000 C   0  0  0  0  0  0  0  0  0  0  0  0
   -1.5254   -1.5555    0.0000 C   0  0  0  0  0  0  0  0  0  0  0  0
   -2.9959   -1.2596    0.0000 C   0  0  0  0  0  0  0  0  0  0  0  0
   -3.4750    0.1618    0.0000 N   0  0  0  0  0  0  0  0  0  0  0  0
   -4.9455    0.4577    0.0000 C   0  0  0  0  0  0  0  0  0  0  0  0
   -5.4246    1.8791    0.0000 C   0  0  0  0  0  0  0  0  0  0  0  0
   -6.8951    2.1750    0.0000 C   0  0  0  0  0  0  0  0  0  0  0  0
   -7.8866    1.0494    0.0000 N   0  0  0  0  0  0  0  0  0  0  0  0
   -9.3571    1.3452    0.0000 C   0  0  0  0  0  0  0  0  0  0  0  0
   -7.4075   -0.3721    0.0000 C   0  0  0  0  0  0  0  0  0  0  0  0
   -5.9370   -0.6679    0.0000 C   0  0  0  0  0  0  0  0  0  0  0  0
   -0.5339   -0.4299    0.0000 C   0  0  0  0  0  0  0  0  0  0  0  0
   -1.0130    0.9916    0.0000 C   0  0  0  0  0  0  0  0  0  0  0  0
   -0.0215    2.1172    0.0000 C   0  0  0  0  0  0  0  0  0  0  0  0
   -2.4835    1.2874    0.0000 C   0  0  0  0  0  0  0  0  0  0  0  0
    0.9366   -0.7257    0.0000 C   0  0  0  0  0  0  0  0  0  0  0  0
    1.4157   -2.1472    0.0000 C   0  0  0  0  0  0  0  0  0  0  0  0
    2.8862   -2.4430    0.0000 C   0  0  0  0  0  0  0  0  0  0  0  0
    3.8777   -1.3174    0.0000 C   0  0  0  0  0  0  0  0  0  0  0  0
    5.3711   -1.4579    0.0000 N   0  0  0  0  0  0  0  0  0  0  0  0
    5.9662   -0.0810    0.0000 C   0  0  0  0  0  0  0  0  0  0  0  0
    7.3877    0.3980    0.0000 C   0  0  0  0  0  0  0  0  0  0  0  0
    7.6835    1.8685    0.0000 C   0  0  0  0  0  0  0  0  0  0  0  0
    6.5579    2.8600    0.0000 C   0  0  0  0  0  0  0  0  0  0  0  0
    5.1365    2.3810    0.0000 C   0  0  0  0  0  0  0  0  0  0  0  0
    4.0109    3.3725    0.0000 C   0  0  0  0  0  0  0  0  0  0  0  0
    4.8406    0.9104    0.0000 C   0  0  0  0  0  0  0  0  0  0  0  0
    3.5498    0.1463    0.0000 N   0  0  0  0  0  0  0  0  0  0  0  0
  1  2  1  0
  2  3  2  0
  3  4  1  0
  4  5  1  1
  5  6  1  0
  6  7  1  0
  7  8  1  0
  8  9  1  0
  9 10  1  0
 10 11  1  0
 10 12  1  0
 12 13  1  0
  4 14  1  0
 14 15  1  6
 15 16  1  0
 15 17  1  0
 14 18  1  0
 18 19  1  0
 19 20  1  1
 20 21  1  0
 21 22  2  0
 22 23  1  0
 23 24  2  0
 24 25  1  0
 25 26  2  0
 26 27  1  0
 27 28  1  0
 27 29  2  0
 29 30  1  0
 19  2  1  0
 30 21  1  0
 13  7  1  0
 29 23  1  0
M  END
