
     RDKit          2D

 30 33  0  0  0  0  0  0  0  0999 V2000
    8.3363   -0.9831    0.0000 C   0  0  0  0  0  0  0  0  0  0  0  0
    7.4879    0.2540    0.0000 C   0  0  0  0  0  0  0  0  0  0  0  0
    7.9901    1.6675    0.0000 C   0  0  0  0  0  0  0  0  0  0  0  0
    6.8011    2.5818    0.0000 O   0  0  0  0  0  0  0  0  0  0  0  0
    5.5640    1.7335    0.0000 C   0  0  0  0  0  0  0  0  0  0  0  0
    4.1058    2.0852    0.0000 C   0  0  0  0  0  0  0  0  0  0  0  0
    3.0721    0.9983    0.0000 C   0  0  0  0  0  0  0  0  0  0  0  0
    3.4966   -0.4404    0.0000 C   0  0  0  0  0  0  0  0  0  0  0  0
    4.9548   -0.7921    0.0000 C   0  0  0  0  0  0  0  0  0  0  0  0
    5.9885    0.2949    0.0000 C   0  0  0  0  0  0  0  0  0  0  0  0
    2.4630   -1.5274    0.0000 C   0  0  0  0  0  0  0  0  0  0  0  0
    2.8875   -2.9661    0.0000 C   0  0  0  0  0  0  0  0  0  0  0  0
    1.0048   -1.1757    0.0000 C   0  0  0  0  0  0  0  0  0  0  0  0
   -0.0289   -2.2627    0.0000 C   0  0  0  0  0  0  0  0  0  0  0  0
   -1.4871   -1.9110    0.0000 C   0  0  0  0  0  0  0  0  0  0  0  0
   -1.9116   -0.4723    0.0000 O   0  0  0  0  0  0  0  0  0  0  0  0
   -2.5207   -2.9980    0.0000 N   0  0  0  0  0  0  0  0  0  0  0  0
   -3.9789   -2.6463    0.0000 C   0  0  0  0  0  0  0  0  0  0  0  0
   -5.0126   -3.7332    0.0000 C   0  0  0  0  0  0  0  0  0  0  0  0
   -4.4034   -1.2076    0.0000 C   0  0  0  0  0  0  0  0  0  0  0  0
   -5.8616   -0.8559    0.0000 C   0  0  0  0  0  0  0  0  0  0  0  0
   -6.2861    0.5828    0.0000 C   0  0  0  0  0  0  0  0  0  0  0  0
   -5.2525    1.6698    0.0000 C   0  0  0  0  0  0  0  0  0  0  0  0
   -5.6770    3.1084    0.0000 C   0  0  0  0  0  0  0  0  0  0  0  0
   -7.1352    3.4601    0.0000 C   0  0  0  0  0  0  0  0  0  0  0  0
   -8.1688    2.3732    0.0000 C   0  0  0  0  0  0  0  0  0  0  0  0
   -7.7443    0.9345    0.0000 C   0  0  0  0  0  0  0  0  0  0  0  0
    0.5803    0.2630    0.0000 C   0  0  0  0  0  0  0  0  0  0  0  0
   -0.8779    0.6147    0.0000 O   0  0  0  0  0  0  0  0  0  0  0  0
    1.6139    1.3500    0.0000 O   0  0  0  0  0  0  0  0  0  0  0  0
  1  2  1  0
  2  3  2  0
  3  4  1  0
  4  5  1  0
  5  6  2  0
  6  7  1  0
  7  8  2  0
  8  9  1  0
  9 10  2  0
  8 11  1  0
 11 12  1  0
 11 13  2  0
 13 14  1  0
 14 15  1  0
 15 16  2  0
 15 17  1  0
 17 18  1  0
 18 19  1  1
 18 20  1  0
 20 21  1  0
 21 22  1  0
 22 23  2  0
 23 24  1  0
 24 25  2  0
 25 26  1  0
 26 27  2  0
 13 28  1  0
 28 29  2  0
 28 30  1  0
 10  2  1  0
 27 22  1  0
 10  5  1  0
 30  7  1  0
M  END
