
     RDKit          2D

 30 32  0  0  0  0  0  0  0  0999 V2000
   -9.8763   -0.0028    0.0000 C   0  0  0  0  0  0  0  0  0  0  0  0
   -8.4523    0.4685    0.0000 C   0  0  0  0  0  0  0  0  0  0  0  0
   -8.1484    1.9374    0.0000 O   0  0  0  0  0  0  0  0  0  0  0  0
   -7.3321   -0.5291    0.0000 N   0  0  0  0  0  0  0  0  0  0  0  0
   -5.9081   -0.0578    0.0000 C   0  0  0  0  0  0  0  0  0  0  0  0
   -4.6898   -0.9329    0.0000 C   0  0  0  0  0  0  0  0  0  0  0  0
   -3.4811   -0.0446    0.0000 N   0  0  0  0  0  0  0  0  0  0  0  0
   -2.0520   -0.5003    0.0000 C   0  0  0  0  0  0  0  0  0  0  0  0
   -0.8433    0.3880    0.0000 C   0  0  0  0  0  0  0  0  0  0  0  0
    0.3750   -0.4871    0.0000 C   0  0  0  0  0  0  0  0  0  0  0  0
    1.7991   -0.0158    0.0000 C   0  0  0  0  0  0  0  0  0  0  0  0
    2.1029    1.4531    0.0000 O   0  0  0  0  0  0  0  0  0  0  0  0
    3.5270    1.9244    0.0000 C   0  0  0  0  0  0  0  0  0  0  0  0
    3.8308    3.3933    0.0000 C   0  0  0  0  0  0  0  0  0  0  0  0
    2.7107    4.3909    0.0000 O   0  0  0  0  0  0  0  0  0  0  0  0
    5.2549    3.8646    0.0000 N   0  0  0  0  0  0  0  0  0  0  0  0
    5.5588    5.3335    0.0000 C   0  0  0  0  0  0  0  0  0  0  0  0
    6.3751    2.8670    0.0000 C   0  0  0  0  0  0  0  0  0  0  0  0
   -0.0807   -1.9162    0.0000 N   0  0  0  0  0  0  0  0  0  0  0  0
    0.8076   -3.1249    0.0000 C   0  0  0  0  0  0  0  0  0  0  0  0
    2.2985   -2.9600    0.0000 C   0  0  0  0  0  0  0  0  0  0  0  0
    3.1868   -4.1687    0.0000 C   0  0  0  0  0  0  0  0  0  0  0  0
    4.6777   -4.0038    0.0000 N   0  0  0  0  0  0  0  0  0  0  0  0
    5.2803   -2.6301    0.0000 C   0  0  0  0  0  0  0  0  0  0  0  0
    6.7712   -2.4652    0.0000 O   0  0  0  0  0  0  0  0  0  0  0  0
    4.3920   -1.4214    0.0000 C   0  0  0  0  0  0  0  0  0  0  0  0
    2.9011   -1.5863    0.0000 C   0  0  0  0  0  0  0  0  0  0  0  0
   -1.5807   -1.9244    0.0000 C   0  0  0  0  0  0  0  0  0  0  0  0
   -3.9524    1.3795    0.0000 N   0  0  0  0  0  0  0  0  0  0  0  0
   -5.4523    1.3713    0.0000 C   0  0  0  0  0  0  0  0  0  0  0  0
  1  2  1  0
  2  3  2  0
  2  4  1  0
  4  5  1  0
  5  6  2  0
  6  7  1  0
  8  7  1  1
  8  9  1  0
  9 10  1  0
 10 11  1  1
 11 12  1  0
 12 13  1  0
 13 14  1  0
 14 15  2  0
 14 16  1  0
 16 17  1  0
 16 18  1  0
 10 19  1  0
 19 20  1  0
 20 21  1  0
 21 22  2  0
 22 23  1  0
 23 24  1  0
 24 25  2  0
 24 26  1  0
 26 27  2  0
 19 28  1  0
  7 29  1  0
 29 30  2  0
 30  5  1  0
 28  8  1  0
 27 21  1  0
M  END
