
     RDKit          2D

 30 33  0  0  0  0  0  0  0  0999 V2000
   -7.9786    1.0594    0.0000 C   0  0  0  0  0  0  0  0  0  0  0  0
   -6.9056    0.0112    0.0000 S   0  0  0  0  0  0  0  0  0  0  0  0
   -5.8574    1.0841    0.0000 O   0  0  0  0  0  0  0  0  0  0  0  0
   -7.9538   -1.0618    0.0000 O   0  0  0  0  0  0  0  0  0  0  0  0
   -5.8327   -1.0370    0.0000 N   0  0  0  0  0  0  0  0  0  0  0  0
   -4.3884   -0.6319    0.0000 C   0  0  0  0  0  0  0  0  0  0  0  0
   -3.2117   -1.5622    0.0000 C   0  0  0  0  0  0  0  0  0  0  0  0
   -1.9634   -0.7306    0.0000 C   0  0  0  0  0  0  0  0  0  0  0  0
   -0.5100   -1.1019    0.0000 C   0  0  0  0  0  0  0  0  0  0  0  0
    0.5382   -0.0289    0.0000 N   0  0  0  0  0  0  0  0  0  0  0  0
    1.9915   -0.4002    0.0000 C   0  0  0  0  0  0  0  0  0  0  0  0
    2.3966   -1.8445    0.0000 C   0  0  0  0  0  0  0  0  0  0  0  0
    1.3484   -2.9174    0.0000 C   0  0  0  0  0  0  0  0  0  0  0  0
    1.7535   -4.3617    0.0000 C   0  0  0  0  0  0  0  0  0  0  0  0
    3.2069   -4.7330    0.0000 C   0  0  0  0  0  0  0  0  0  0  0  0
    4.2551   -3.6600    0.0000 C   0  0  0  0  0  0  0  0  0  0  0  0
    5.7084   -4.0313    0.0000 O   0  0  0  0  0  0  0  0  0  0  0  0
    3.8499   -2.2157    0.0000 C   0  0  0  0  0  0  0  0  0  0  0  0
    0.1330    1.4153    0.0000 C   0  0  0  0  0  0  0  0  0  0  0  0
    1.1812    2.4883    0.0000 C   0  0  0  0  0  0  0  0  0  0  0  0
    2.6346    2.1170    0.0000 N   0  0  0  0  0  0  0  0  0  0  0  0
    3.6828    3.1900    0.0000 C   0  0  0  0  0  0  0  0  0  0  0  0
    3.2776    4.6343    0.0000 O   0  0  0  0  0  0  0  0  0  0  0  0
    5.1361    2.8187    0.0000 C   0  0  0  0  0  0  0  0  0  0  0  0
    6.5803    3.2238    0.0000 C   0  0  0  0  0  0  0  0  0  0  0  0
    6.2091    1.7705    0.0000 C   0  0  0  0  0  0  0  0  0  0  0  0
   -1.3203    1.7866    0.0000 C   0  0  0  0  0  0  0  0  0  0  0  0
   -1.7254    3.2309    0.0000 O   0  0  0  0  0  0  0  0  0  0  0  0
   -2.3685    0.7136    0.0000 N   0  0  0  0  0  0  0  0  0  0  0  0
   -3.8672    0.7746    0.0000 C   0  0  0  0  0  0  0  0  0  0  0  0
  1  2  1  0
  2  3  2  0
  2  4  2  0
  2  5  1  0
  6  5  1  6
  6  7  1  0
  8  7  1  6
  8  9  1  0
  9 10  1  0
 10 11  1  0
 11 12  1  0
 12 13  2  0
 13 14  1  0
 14 15  2  0
 15 16  1  0
 16 17  1  0
 16 18  2  0
 10 19  1  0
 19 20  1  6
 20 21  1  0
 21 22  1  0
 22 23  2  0
 22 24  1  0
 24 25  1  0
 25 26  1  0
 19 27  1  0
 27 28  2  0
 27 29  1  0
 29 30  1  0
 30  6  1  0
 29  8  1  0
 18 12  1  0
 26 24  1  0
M  END
