
     RDKit          2D

 30 32  0  0  0  0  0  0  0  0999 V2000
    5.0839   -4.7175    0.0000 C   0  0  0  0  0  0  0  0  0  0  0  0
    5.8721   -3.4413    0.0000 O   0  0  0  0  0  0  0  0  0  0  0  0
    5.1610   -2.1206    0.0000 C   0  0  0  0  0  0  0  0  0  0  0  0
    3.6617   -2.0760    0.0000 C   0  0  0  0  0  0  0  0  0  0  0  0
    2.9505   -0.7553    0.0000 C   0  0  0  0  0  0  0  0  0  0  0  0
    1.4512   -0.7108    0.0000 O   0  0  0  0  0  0  0  0  0  0  0  0
    0.7401    0.6099    0.0000 C   0  0  0  0  0  0  0  0  0  0  0  0
    1.5283    1.8861    0.0000 O   0  0  0  0  0  0  0  0  0  0  0  0
    0.8172    3.2069    0.0000 C   0  0  0  0  0  0  0  0  0  0  0  0
    1.6054    4.4831    0.0000 C   0  0  0  0  0  0  0  0  0  0  0  0
    3.1048    4.4385    0.0000 O   0  0  0  0  0  0  0  0  0  0  0  0
   -0.6821    3.2514    0.0000 C   0  0  0  0  0  0  0  0  0  0  0  0
   -1.3933    4.5721    0.0000 O   0  0  0  0  0  0  0  0  0  0  0  0
   -1.4704    1.9752    0.0000 C   0  0  0  0  0  0  0  0  0  0  0  0
   -2.9697    2.0197    0.0000 O   0  0  0  0  0  0  0  0  0  0  0  0
   -0.7592    0.6544    0.0000 C   0  0  0  0  0  0  0  0  0  0  0  0
   -1.5475   -0.6218    0.0000 O   0  0  0  0  0  0  0  0  0  0  0  0
   -3.0468   -0.5772    0.0000 C   0  0  0  0  0  0  0  0  0  0  0  0
   -3.8921    0.6619    0.0000 O   0  0  0  0  0  0  0  0  0  0  0  0
   -5.3318    0.2409    0.0000 C   0  0  0  0  0  0  0  0  0  0  0  0
   -5.3763   -1.2584    0.0000 C   0  0  0  0  0  0  0  0  0  0  0  0
   -5.7316   -2.7157    0.0000 O   0  0  0  0  0  0  0  0  0  0  0  0
   -6.8628   -1.0574    0.0000 C   0  0  0  0  0  0  0  0  0  0  0  0
   -7.7801   -2.2442    0.0000 O   0  0  0  0  0  0  0  0  0  0  0  0
   -3.9641   -1.7641    0.0000 C   0  0  0  0  0  0  0  0  0  0  0  0
   -3.5431   -3.2038    0.0000 O   0  0  0  0  0  0  0  0  0  0  0  0
    3.7388    0.5209    0.0000 C   0  0  0  0  0  0  0  0  0  0  0  0
    5.2381    0.4764    0.0000 C   0  0  0  0  0  0  0  0  0  0  0  0
    5.9492   -0.8444    0.0000 C   0  0  0  0  0  0  0  0  0  0  0  0
    7.4486   -0.8889    0.0000 O   0  0  0  0  0  0  0  0  0  0  0  0
  1  2  1  0
  2  3  1  0
  3  4  2  0
  4  5  1  0
  5  6  1  0
  7  6  1  6
  7  8  1  0
  8  9  1  0
  9 10  1  1
 10 11  1  0
  9 12  1  0
 12 13  1  6
 12 14  1  0
 14 15  1  1
 14 16  1  0
 16 17  1  6
 18 17  1  1
 18 19  1  0
 19 20  1  0
 20 21  1  0
 21 22  1  6
 21 23  1  0
 23 24  1  0
 21 25  1  0
 25 26  1  6
  5 27  2  0
 27 28  1  0
 28 29  2  0
 29 30  1  0
 29  3  1  0
 16  7  1  0
 25 18  1  0
M  END
