
     RDKit          2D

 30 34  0  0  0  0  0  0  0  0999 V2000
    8.7731    0.5463    0.0000 C   0  0  0  0  0  0  0  0  0  0  0  0
    7.3110    0.2113    0.0000 C   0  0  0  0  0  0  0  0  0  0  0  0
    6.8700   -1.2225    0.0000 O   0  0  0  0  0  0  0  0  0  0  0  0
    6.2898    1.3100    0.0000 O   0  0  0  0  0  0  0  0  0  0  0  0
    4.8277    0.9750    0.0000 C   0  0  0  0  0  0  0  0  0  0  0  0
    3.8065    2.0737    0.0000 C   0  0  0  0  0  0  0  0  0  0  0  0
    2.3444    1.7387    0.0000 C   0  0  0  0  0  0  0  0  0  0  0  0
    1.9035    0.3050    0.0000 C   0  0  0  0  0  0  0  0  0  0  0  0
    0.8823    1.4037    0.0000 C   0  0  0  0  0  0  0  0  0  0  0  0
    2.9246   -0.7937    0.0000 C   0  0  0  0  0  0  0  0  0  0  0  0
    2.4837   -2.2275    0.0000 C   0  0  0  0  0  0  0  0  0  0  0  0
    1.0216   -2.5625    0.0000 C   0  0  0  0  0  0  0  0  0  0  0  0
    0.0004   -1.4637    0.0000 C   0  0  0  0  0  0  0  0  0  0  0  0
    0.4414   -0.0300    0.0000 C   0  0  0  0  0  0  0  0  0  0  0  0
   -0.5798    1.0687    0.0000 C   0  0  0  0  0  0  0  0  0  0  0  0
   -2.0419    0.7337    0.0000 C   0  0  0  0  0  0  0  0  0  0  0  0
   -2.4829   -0.7000    0.0000 C   0  0  0  0  0  0  0  0  0  0  0  0
   -3.6133    0.2860    0.0000 C   0  0  0  0  0  0  0  0  0  0  0  0
   -1.4617   -1.7987    0.0000 C   0  0  0  0  0  0  0  0  0  0  0  0
   -2.1911   -3.1094    0.0000 C   0  0  0  0  0  0  0  0  0  0  0  0
   -3.6631   -2.8208    0.0000 C   0  0  0  0  0  0  0  0  0  0  0  0
   -5.0428   -2.2324    0.0000 O   0  0  0  0  0  0  0  0  0  0  0  0
   -3.8434   -1.3317    0.0000 C   0  0  0  0  0  0  0  0  0  0  0  0
   -4.6138   -0.0446    0.0000 C   0  0  0  0  0  0  0  0  0  0  0  0
   -6.1136   -0.0683    0.0000 C   0  0  0  0  0  0  0  0  0  0  0  0
   -3.8844    1.2661    0.0000 O   0  0  0  0  0  0  0  0  0  0  0  0
   -4.6548    2.5531    0.0000 C   0  0  0  0  0  0  0  0  0  0  0  0
   -3.9254    3.8638    0.0000 C   0  0  0  0  0  0  0  0  0  0  0  0
   -6.1546    2.5294    0.0000 O   0  0  0  0  0  0  0  0  0  0  0  0
    4.3868   -0.4587    0.0000 C   0  0  0  0  0  0  0  0  0  0  0  0
  1  2  1  0
  2  3  2  0
  2  4  1  0
  5  4  1  6
  5  6  1  0
  6  7  1  0
  7  8  1  0
  8  9  1  6
  8 10  1  0
 10 11  2  0
 11 12  1  0
 13 12  1  6
 13 14  1  0
 14 15  1  1
 15 16  1  0
 16 17  1  0
 17 18  1  6
 17 19  1  0
 19 20  1  1
 21 20  1  1
 21 22  1  0
 23 22  1  6
 23 24  1  0
 24 25  1  6
 24 26  1  0
 26 27  1  0
 27 28  1  0
 27 29  2  0
 10 30  1  0
 30  5  1  0
 14  8  1  0
 23 17  1  0
 19 13  1  0
 23 21  1  0
M  END
