
     RDKit          2D

 30 34  0  0  0  0  0  0  0  0999 V2000
   -9.0645   -1.9718    0.0000 C   0  0  0  0  0  0  0  0  0  0  0  0
   -8.6474   -0.5310    0.0000 C   0  0  0  0  0  0  0  0  0  0  0  0
   -7.2365   -0.0215    0.0000 C   0  0  0  0  0  0  0  0  0  0  0  0
   -5.9139   -0.7291    0.0000 C   0  0  0  0  0  0  0  0  0  0  0  0
   -4.6398    0.0625    0.0000 C   0  0  0  0  0  0  0  0  0  0  0  0
   -3.3172   -0.6451    0.0000 C   0  0  0  0  0  0  0  0  0  0  0  0
   -3.2687   -2.1443    0.0000 C   0  0  0  0  0  0  0  0  0  0  0  0
   -1.9460   -2.8519    0.0000 N   0  0  0  0  0  0  0  0  0  0  0  0
   -0.6719   -2.0603    0.0000 C   0  0  0  0  0  0  0  0  0  0  0  0
   -0.7205   -0.5610    0.0000 C   0  0  0  0  0  0  0  0  0  0  0  0
    0.5536    0.2306    0.0000 O   0  0  0  0  0  0  0  0  0  0  0  0
    1.8763   -0.4770    0.0000 C   0  0  0  0  0  0  0  0  0  0  0  0
    3.1504    0.3146    0.0000 C   0  0  0  0  0  0  0  0  0  0  0  0
    3.1018    1.8138    0.0000 N   0  0  0  0  0  0  0  0  0  0  0  0
    4.4730   -0.3930    0.0000 C   0  0  0  0  0  0  0  0  0  0  0  0
    5.7471    0.3987    0.0000 C   0  0  0  0  0  0  0  0  0  0  0  0
    5.8555    1.8947    0.0000 C   0  0  0  0  0  0  0  0  0  0  0  0
    7.3119    2.2539    0.0000 N   0  0  0  0  0  0  0  0  0  0  0  0
    8.1035    0.9798    0.0000 C   0  0  0  0  0  0  0  0  0  0  0  0
    9.5801    0.7155    0.0000 C   0  0  0  0  0  0  0  0  0  0  0  0
   10.0895   -0.6953    0.0000 C   0  0  0  0  0  0  0  0  0  0  0  0
    9.1224   -1.8419    0.0000 C   0  0  0  0  0  0  0  0  0  0  0  0
    7.6458   -1.5777    0.0000 C   0  0  0  0  0  0  0  0  0  0  0  0
    7.1364   -0.1668    0.0000 C   0  0  0  0  0  0  0  0  0  0  0  0
   -2.0431    0.1465    0.0000 C   0  0  0  0  0  0  0  0  0  0  0  0
   -4.6883    1.5617    0.0000 C   0  0  0  0  0  0  0  0  0  0  0  0
   -6.0109    2.2693    0.0000 C   0  0  0  0  0  0  0  0  0  0  0  0
   -7.2850    1.4777    0.0000 C   0  0  0  0  0  0  0  0  0  0  0  0
   -8.7259    1.8948    0.0000 N   0  0  0  0  0  0  0  0  0  0  0  0
   -9.5678    0.6534    0.0000 N   0  0  0  0  0  0  0  0  0  0  0  0
  1  2  1  0
  2  3  2  0
  3  4  1  0
  4  5  2  0
  5  6  1  0
  6  7  2  0
  7  8  1  0
  8  9  2  0
  9 10  1  0
 10 11  1  0
 11 12  1  0
 12 13  1  0
 13 14  1  1
 13 15  1  0
 15 16  1  0
 16 17  2  0
 17 18  1  0
 18 19  1  0
 19 20  2  0
 20 21  1  0
 21 22  2  0
 22 23  1  0
 23 24  2  0
 10 25  2  0
  5 26  1  0
 26 27  2  0
 27 28  1  0
 28 29  2  0
 29 30  1  0
 30  2  1  0
 28  3  1  0
 25  6  1  0
 24 16  1  0
 24 19  1  0
M  END
