
     RDKit          2D

 30 33  0  0  0  0  0  0  0  0999 V2000
   -3.7567    4.8211    0.0000 O   0  0  0  0  0  0  0  0  0  0  0  0
   -4.7441    3.6919    0.0000 C   0  0  0  0  0  0  0  0  0  0  0  0
   -4.2599    2.2722    0.0000 C   0  0  0  0  0  0  0  0  0  0  0  0
   -2.8986    2.9021    0.0000 O   0  0  0  0  0  0  0  0  0  0  0  0
   -5.7224    1.9390    0.0000 C   0  0  0  0  0  0  0  0  0  0  0  0
   -5.8575    0.4451    0.0000 O   0  0  0  0  0  0  0  0  0  0  0  0
   -4.4785   -0.1450    0.0000 C   0  0  0  0  0  0  0  0  0  0  0  0
   -4.1453   -1.6075    0.0000 O   0  0  0  0  0  0  0  0  0  0  0  0
   -2.7122   -2.0503    0.0000 C   0  0  0  0  0  0  0  0  0  0  0  0
   -2.3790   -3.5128    0.0000 C   0  0  0  0  0  0  0  0  0  0  0  0
   -0.9458   -3.9555    0.0000 C   0  0  0  0  0  0  0  0  0  0  0  0
   -0.6127   -5.4181    0.0000 O   0  0  0  0  0  0  0  0  0  0  0  0
    0.1542   -2.9357    0.0000 C   0  0  0  0  0  0  0  0  0  0  0  0
    1.5874   -3.3785    0.0000 C   0  0  0  0  0  0  0  0  0  0  0  0
    2.6874   -2.3587    0.0000 C   0  0  0  0  0  0  0  0  0  0  0  0
    4.1205   -2.8014    0.0000 O   0  0  0  0  0  0  0  0  0  0  0  0
    2.3542   -0.8962    0.0000 C   0  0  0  0  0  0  0  0  0  0  0  0
    3.4542    0.1236    0.0000 C   0  0  0  0  0  0  0  0  0  0  0  0
    4.8874   -0.3191    0.0000 C   0  0  0  0  0  0  0  0  0  0  0  0
    5.9874    0.7007    0.0000 C   0  0  0  0  0  0  0  0  0  0  0  0
    5.6542    2.1632    0.0000 C   0  0  0  0  0  0  0  0  0  0  0  0
    6.7542    3.1830    0.0000 O   0  0  0  0  0  0  0  0  0  0  0  0
    4.2211    2.6060    0.0000 C   0  0  0  0  0  0  0  0  0  0  0  0
    3.8879    4.0685    0.0000 O   0  0  0  0  0  0  0  0  0  0  0  0
    3.1211    1.5862    0.0000 C   0  0  0  0  0  0  0  0  0  0  0  0
    0.9210   -0.4534    0.0000 O   0  0  0  0  0  0  0  0  0  0  0  0
   -0.1790   -1.4732    0.0000 C   0  0  0  0  0  0  0  0  0  0  0  0
   -1.6121   -1.0305    0.0000 C   0  0  0  0  0  0  0  0  0  0  0  0
   -3.4911    0.9842    0.0000 C   0  0  0  0  0  0  0  0  0  0  0  0
   -1.9972    0.8491    0.0000 O   0  0  0  0  0  0  0  0  0  0  0  0
  1  2  1  0
  2  3  1  0
  3  4  1  6
  3  5  1  0
  5  6  1  0
  6  7  1  0
  7  8  1  1
  8  9  1  0
  9 10  2  0
 10 11  1  0
 11 12  1  0
 11 13  2  0
 13 14  1  0
 14 15  1  0
 15 16  1  1
 15 17  1  0
 17 18  1  6
 18 19  2  0
 19 20  1  0
 20 21  2  0
 21 22  1  0
 21 23  1  0
 23 24  1  0
 23 25  2  0
 17 26  1  0
 26 27  1  0
 27 28  2  0
  7 29  1  0
 29 30  1  6
 29  3  1  0
 28  9  1  0
 27 13  1  0
 25 18  1  0
M  END
