
     RDKit          2D

 30 34  0  0  0  0  0  0  0  0999 V2000
   -6.0931    3.5246    0.0000 C   0  0  0  0  0  0  0  0  0  0  0  0
   -4.7322    2.8937    0.0000 C   0  0  0  0  0  0  0  0  0  0  0  0
   -3.5055    3.7569    0.0000 O   0  0  0  0  0  0  0  0  0  0  0  0
   -4.5981    1.3997    0.0000 O   0  0  0  0  0  0  0  0  0  0  0  0
   -3.2373    0.7689    0.0000 C   0  0  0  0  0  0  0  0  0  0  0  0
   -1.9270    1.4990    0.0000 C   0  0  0  0  0  0  0  0  0  0  0  0
   -0.8276    0.4785    0.0000 C   0  0  0  0  0  0  0  0  0  0  0  0
   -0.3425    1.8979    0.0000 C   0  0  0  0  0  0  0  0  0  0  0  0
    0.6664    0.6126    0.0000 C   0  0  0  0  0  0  0  0  0  0  0  0
    1.2972    1.9735    0.0000 C   0  0  0  0  0  0  0  0  0  0  0  0
    2.7912    2.1076    0.0000 C   0  0  0  0  0  0  0  0  0  0  0  0
    3.6543    0.8809    0.0000 C   0  0  0  0  0  0  0  0  0  0  0  0
    5.1483    1.0150    0.0000 C   0  0  0  0  0  0  0  0  0  0  0  0
    5.7792    2.3758    0.0000 C   0  0  0  0  0  0  0  0  0  0  0  0
    6.0115   -0.2118    0.0000 C   0  0  0  0  0  0  0  0  0  0  0  0
    7.5055   -0.0777    0.0000 O   0  0  0  0  0  0  0  0  0  0  0  0
    5.3806   -1.5727    0.0000 C   0  0  0  0  0  0  0  0  0  0  0  0
    3.8866   -1.7068    0.0000 C   0  0  0  0  0  0  0  0  0  0  0  0
    3.0235   -0.4800    0.0000 C   0  0  0  0  0  0  0  0  0  0  0  0
    2.3926   -1.8409    0.0000 C   0  0  0  0  0  0  0  0  0  0  0  0
    1.5295   -0.6141    0.0000 C   0  0  0  0  0  0  0  0  0  0  0  0
    0.8986   -1.9750    0.0000 C   0  0  0  0  0  0  0  0  0  0  0  0
   -0.5953   -2.1091    0.0000 C   0  0  0  0  0  0  0  0  0  0  0  0
   -1.4585   -0.8824    0.0000 C   0  0  0  0  0  0  0  0  0  0  0  0
   -2.2281   -2.1699    0.0000 C   0  0  0  0  0  0  0  0  0  0  0  0
   -2.9477   -0.7029    0.0000 C   0  0  0  0  0  0  0  0  0  0  0  0
   -3.9682   -1.8023    0.0000 C   0  0  0  0  0  0  0  0  0  0  0  0
   -5.4305   -1.4681    0.0000 C   0  0  0  0  0  0  0  0  0  0  0  0
   -3.5264   -3.2357    0.0000 C   0  0  0  0  0  0  0  0  0  0  0  0
   -4.5470   -4.3351    0.0000 O   0  0  0  0  0  0  0  0  0  0  0  0
  1  2  1  0
  2  3  2  0
  2  4  1  0
  5  4  1  1
  5  6  1  0
  6  7  1  0
  7  8  1  6
  7  9  1  0
  9 10  1  6
 10 11  1  0
 12 11  1  1
 12 13  1  0
 13 14  1  6
 13 15  1  0
 15 16  2  0
 15 17  1  0
 17 18  2  0
 18 19  1  0
 19 20  1  1
 21 20  1  1
 21 22  1  0
 22 23  1  0
 23 24  1  0
 24 25  1  1
 24 26  1  0
 26 27  1  1
 27 28  1  1
 27 29  1  0
 29 30  2  0
 26  5  1  0
 24  7  1  0
 21  9  1  0
 19 12  1  0
 21 19  1  0
M  END
