
     RDKit          2D

 30 32  0  0  0  0  0  0  0  0999 V2000
    9.9019   -0.6134    0.0000 C   0  0  0  0  0  0  0  0  0  0  0  0
    8.4147   -0.4174    0.0000 C   0  0  0  0  0  0  0  0  0  0  0  0
    7.8408    0.9685    0.0000 C   0  0  0  0  0  0  0  0  0  0  0  0
    8.7541    2.1584    0.0000 C   0  0  0  0  0  0  0  0  0  0  0  0
    6.3537    1.1644    0.0000 C   0  0  0  0  0  0  0  0  0  0  0  0
    5.4404   -0.0255    0.0000 C   0  0  0  0  0  0  0  0  0  0  0  0
    6.0143   -1.4114    0.0000 C   0  0  0  0  0  0  0  0  0  0  0  0
    3.9533    0.1705    0.0000 C   0  0  0  0  0  0  0  0  0  0  0  0
    3.0400   -1.0194    0.0000 C   0  0  0  0  0  0  0  0  0  0  0  0
    1.5528   -0.8235    0.0000 C   0  0  0  0  0  0  0  0  0  0  0  0
    0.6396   -2.0134    0.0000 C   0  0  0  0  0  0  0  0  0  0  0  0
   -0.8476   -1.8174    0.0000 C   0  0  0  0  0  0  0  0  0  0  0  0
   -1.7609   -3.0074    0.0000 C   0  0  0  0  0  0  0  0  0  0  0  0
   -3.2480   -2.8114    0.0000 C   0  0  0  0  0  0  0  0  0  0  0  0
   -4.1613   -4.0013    0.0000 O   0  0  0  0  0  0  0  0  0  0  0  0
   -3.8219   -1.4255    0.0000 C   0  0  0  0  0  0  0  0  0  0  0  0
   -4.8545   -2.5134    0.0000 C   0  0  0  0  0  0  0  0  0  0  0  0
   -5.2358   -0.9246    0.0000 O   0  0  0  0  0  0  0  0  0  0  0  0
   -5.1963    0.5749    0.0000 C   0  0  0  0  0  0  0  0  0  0  0  0
   -6.6917    0.4573    0.0000 C   0  0  0  0  0  0  0  0  0  0  0  0
   -5.4695    2.0498    0.0000 O   0  0  0  0  0  0  0  0  0  0  0  0
   -3.7580    1.0007    0.0000 C   0  0  0  0  0  0  0  0  0  0  0  0
   -3.2572    2.4146    0.0000 C   0  0  0  0  0  0  0  0  0  0  0  0
   -1.7823    2.6878    0.0000 O   0  0  0  0  0  0  0  0  0  0  0  0
   -4.2312    3.5553    0.0000 O   0  0  0  0  0  0  0  0  0  0  0  0
   -3.7303    4.9692    0.0000 C   0  0  0  0  0  0  0  0  0  0  0  0
   -2.9086   -0.2356    0.0000 C   0  0  0  0  0  0  0  0  0  0  0  0
   -1.4214   -0.4315    0.0000 C   0  0  0  0  0  0  0  0  0  0  0  0
   -0.5082    0.7584    0.0000 C   0  0  0  0  0  0  0  0  0  0  0  0
    0.9790    0.5624    0.0000 O   0  0  0  0  0  0  0  0  0  0  0  0
  1  2  1  0
  2  3  1  0
  3  4  1  6
  3  5  1  0
  5  6  2  0
  6  7  1  0
  6  8  1  0
  8  9  2  0
  9 10  1  0
 10 11  2  0
 11 12  1  0
 12 13  2  0
 13 14  1  0
 14 15  2  0
 14 16  1  0
 16 17  1  1
 16 18  1  0
 18 19  1  0
 19 20  1  1
 19 21  1  0
 19 22  1  0
 22 23  1  1
 23 24  2  0
 23 25  1  0
 25 26  1  0
 22 27  1  0
 27 28  1  6
 28 29  2  0
 29 30  1  0
 30 10  1  0
 28 12  1  0
 27 16  1  0
M  END
