
     RDKit          2D

 30 32  0  0  0  0  0  0  0  0999 V2000
   -9.6993    0.4213    0.0000 C   0  0  0  0  0  0  0  0  0  0  0  0
   -8.2604    0.8451    0.0000 C   0  0  0  0  0  0  0  0  0  0  0  0
   -7.1740   -0.1891    0.0000 O   0  0  0  0  0  0  0  0  0  0  0  0
   -5.7351    0.2346    0.0000 C   0  0  0  0  0  0  0  0  0  0  0  0
   -5.3827    1.6926    0.0000 O   0  0  0  0  0  0  0  0  0  0  0  0
   -4.6486   -0.7996    0.0000 C   0  0  0  0  0  0  0  0  0  0  0  0
   -3.2098   -0.3758    0.0000 C   0  0  0  0  0  0  0  0  0  0  0  0
   -2.8573    1.0822    0.0000 C   0  0  0  0  0  0  0  0  0  0  0  0
   -1.4184    1.5060    0.0000 C   0  0  0  0  0  0  0  0  0  0  0  0
   -0.3320    0.4717    0.0000 C   0  0  0  0  0  0  0  0  0  0  0  0
   -0.6844   -0.9863    0.0000 C   0  0  0  0  0  0  0  0  0  0  0  0
   -2.1233   -1.4100    0.0000 C   0  0  0  0  0  0  0  0  0  0  0  0
   -2.4757   -2.8681    0.0000 C   0  0  0  0  0  0  0  0  0  0  0  0
    0.4020   -2.0205    0.0000 C   0  0  0  0  0  0  0  0  0  0  0  0
    0.0496   -3.4785    0.0000 O   0  0  0  0  0  0  0  0  0  0  0  0
    1.8409   -1.5967    0.0000 C   0  0  0  0  0  0  0  0  0  0  0  0
    2.9274   -2.6309    0.0000 O   0  0  0  0  0  0  0  0  0  0  0  0
    2.1934   -0.1387    0.0000 C   0  0  0  0  0  0  0  0  0  0  0  0
    1.1069    0.8955    0.0000 C   0  0  0  0  0  0  0  0  0  0  0  0
    0.0205    1.9297    0.0000 C   0  0  0  0  0  0  0  0  0  0  0  0
    1.4594    2.3535    0.0000 C   0  0  0  0  0  0  0  0  0  0  0  0
    2.8983    2.7773    0.0000 C   0  0  0  0  0  0  0  0  0  0  0  0
    3.9847    1.7431    0.0000 C   0  0  0  0  0  0  0  0  0  0  0  0
    5.3612    2.3391    0.0000 O   0  0  0  0  0  0  0  0  0  0  0  0
    3.6323    0.2851    0.0000 C   0  0  0  0  0  0  0  0  0  0  0  0
    3.7997   -1.2055    0.0000 C   0  0  0  0  0  0  0  0  0  0  0  0
    5.1293    0.1912    0.0000 C   0  0  0  0  0  0  0  0  0  0  0  0
    6.1053    1.3302    0.0000 O   0  0  0  0  0  0  0  0  0  0  0  0
    5.7965   -1.1523    0.0000 O   0  0  0  0  0  0  0  0  0  0  0  0
    7.2936   -1.2462    0.0000 C   0  0  0  0  0  0  0  0  0  0  0  0
  1  2  1  0
  2  3  1  0
  3  4  1  0
  4  5  2  0
  4  6  1  0
  6  7  2  3
  7  8  1  0
  8  9  1  0
  9 10  1  0
 10 11  1  0
 11 12  1  0
 12 13  1  0
 11 14  1  0
 14 15  1  0
 14 16  1  0
 16 17  2  0
 16 18  1  0
 18 19  1  0
 19 20  1  0
 19 21  1  0
 21 22  1  0
 22 23  1  0
 23 24  1  0
 23 25  1  0
 25 26  1  0
 25 27  1  0
 27 28  2  0
 27 29  1  0
 29 30  1  0
 12  7  1  0
 25 18  1  0
 19 10  1  0
M  END
