
     RDKit          2D

 30 33  0  0  0  0  0  0  0  0999 V2000
   -6.9939   -1.6304    0.0000 C   0  0  0  0  0  0  0  0  0  0  0  0
   -5.5218   -1.9188    0.0000 N   0  0  0  0  0  0  0  0  0  0  0  0
   -4.5361   -0.7881    0.0000 C   0  0  0  0  0  0  0  0  0  0  0  0
   -3.0641   -1.0765    0.0000 C   0  0  0  0  0  0  0  0  0  0  0  0
   -2.5778   -2.4955    0.0000 N   0  0  0  0  0  0  0  0  0  0  0  0
   -1.1058   -2.7838    0.0000 C   0  0  0  0  0  0  0  0  0  0  0  0
   -0.1200   -1.6532    0.0000 C   0  0  0  0  0  0  0  0  0  0  0  0
    1.3520   -1.9416    0.0000 C   0  0  0  0  0  0  0  0  0  0  0  0
    2.3377   -0.8109    0.0000 C   0  0  0  0  0  0  0  0  0  0  0  0
    3.8097   -1.0993    0.0000 C   0  0  0  0  0  0  0  0  0  0  0  0
    4.2960   -2.5183    0.0000 C   0  0  0  0  0  0  0  0  0  0  0  0
    5.7680   -2.8066    0.0000 C   0  0  0  0  0  0  0  0  0  0  0  0
    6.7538   -1.6760    0.0000 C   0  0  0  0  0  0  0  0  0  0  0  0
    6.2675   -0.2570    0.0000 C   0  0  0  0  0  0  0  0  0  0  0  0
    4.7955    0.0313    0.0000 C   0  0  0  0  0  0  0  0  0  0  0  0
    4.3092    1.4503    0.0000 S   0  0  0  0  0  0  0  0  0  0  0  0
    2.8372    1.7387    0.0000 C   0  0  0  0  0  0  0  0  0  0  0  0
    2.3509    3.1577    0.0000 C   0  0  0  0  0  0  0  0  0  0  0  0
    0.8788    3.4460    0.0000 C   0  0  0  0  0  0  0  0  0  0  0  0
   -0.1069    2.3154    0.0000 C   0  0  0  0  0  0  0  0  0  0  0  0
   -1.5789    2.6038    0.0000 S   0  0  0  0  0  0  0  0  0  0  0  0
   -1.2906    4.0758    0.0000 O   0  0  0  0  0  0  0  0  0  0  0  0
   -1.8673    1.1317    0.0000 O   0  0  0  0  0  0  0  0  0  0  0  0
   -3.0509    2.8921    0.0000 N   0  0  0  0  0  0  0  0  0  0  0  0
   -4.0367    1.7615    0.0000 C   0  0  0  0  0  0  0  0  0  0  0  0
   -3.5372    4.3111    0.0000 C   0  0  0  0  0  0  0  0  0  0  0  0
    0.3794    0.8964    0.0000 C   0  0  0  0  0  0  0  0  0  0  0  0
    1.8514    0.6081    0.0000 C   0  0  0  0  0  0  0  0  0  0  0  0
   -3.5635   -3.6261    0.0000 C   0  0  0  0  0  0  0  0  0  0  0  0
   -5.0356   -3.3378    0.0000 C   0  0  0  0  0  0  0  0  0  0  0  0
  1  2  1  0
  2  3  1  0
  3  4  1  0
  4  5  1  0
  5  6  1  0
  6  7  1  0
  7  8  1  0
  8  9  2  3
  9 10  1  0
 10 11  2  0
 11 12  1  0
 12 13  2  0
 13 14  1  0
 14 15  2  0
 15 16  1  0
 16 17  1  0
 17 18  2  0
 18 19  1  0
 19 20  2  0
 20 21  1  0
 21 22  2  0
 21 23  2  0
 21 24  1  0
 24 25  1  0
 24 26  1  0
 20 27  1  0
 27 28  2  0
  5 29  1  0
 29 30  1  0
 30  2  1  0
 28  9  1  0
 15 10  1  0
 28 17  1  0
M  END
