
     RDKit          2D

 30 33  0  0  0  0  0  0  0  0999 V2000
   -8.5934    2.1335    0.0000 C   0  0  0  0  0  0  0  0  0  0  0  0
   -7.0996    1.9976    0.0000 C   0  0  0  0  0  0  0  0  0  0  0  0
   -6.4703    0.6360    0.0000 O   0  0  0  0  0  0  0  0  0  0  0  0
   -4.9765    0.5001    0.0000 C   0  0  0  0  0  0  0  0  0  0  0  0
   -4.1119    1.7259    0.0000 O   0  0  0  0  0  0  0  0  0  0  0  0
   -4.3472   -0.8615    0.0000 C   0  0  0  0  0  0  0  0  0  0  0  0
   -5.2118   -2.0873    0.0000 C   0  0  0  0  0  0  0  0  0  0  0  0
   -4.5825   -3.4489    0.0000 C   0  0  0  0  0  0  0  0  0  0  0  0
   -3.0887   -3.5848    0.0000 C   0  0  0  0  0  0  0  0  0  0  0  0
   -2.2241   -2.3590    0.0000 C   0  0  0  0  0  0  0  0  0  0  0  0
   -2.8534   -0.9974    0.0000 C   0  0  0  0  0  0  0  0  0  0  0  0
   -1.9888    0.2284    0.0000 N   0  0  0  0  0  0  0  0  0  0  0  0
   -0.4950    0.0925    0.0000 C   0  0  0  0  0  0  0  0  0  0  0  0
    0.1343   -1.2691    0.0000 O   0  0  0  0  0  0  0  0  0  0  0  0
    0.3696    1.3183    0.0000 C   0  0  0  0  0  0  0  0  0  0  0  0
   -0.1139    2.7382    0.0000 C   0  0  0  0  0  0  0  0  0  0  0  0
    1.0872    3.6368    0.0000 C   0  0  0  0  0  0  0  0  0  0  0  0
    2.3129    2.7723    0.0000 C   0  0  0  0  0  0  0  0  0  0  0  0
    3.7329    3.2557    0.0000 O   0  0  0  0  0  0  0  0  0  0  0  0
    1.8695    1.3393    0.0000 N   0  0  0  0  0  0  0  0  0  0  0  0
    2.7681    0.1383    0.0000 C   0  0  0  0  0  0  0  0  0  0  0  0
    2.3246   -1.2947    0.0000 O   0  0  0  0  0  0  0  0  0  0  0  0
    3.5504   -2.1593    0.0000 C   0  0  0  0  0  0  0  0  0  0  0  0
    3.5714   -3.6591    0.0000 O   0  0  0  0  0  0  0  0  0  0  0  0
    4.7514   -1.2606    0.0000 C   0  0  0  0  0  0  0  0  0  0  0  0
    6.2229   -1.5519    0.0000 C   0  0  0  0  0  0  0  0  0  0  0  0
    7.2108   -0.4232    0.0000 C   0  0  0  0  0  0  0  0  0  0  0  0
    6.7273    0.9967    0.0000 C   0  0  0  0  0  0  0  0  0  0  0  0
    5.2559    1.2880    0.0000 C   0  0  0  0  0  0  0  0  0  0  0  0
    4.2679    0.1593    0.0000 C   0  0  0  0  0  0  0  0  0  0  0  0
  1  2  1  0
  2  3  1  0
  3  4  1  0
  4  5  2  0
  4  6  1  0
  6  7  2  0
  7  8  1  0
  8  9  2  0
  9 10  1  0
 10 11  2  0
 11 12  1  0
 12 13  1  0
 13 14  2  0
 15 13  1  6
 15 16  1  0
 16 17  1  0
 17 18  1  0
 18 19  2  0
 18 20  1  0
 21 20  1  1
 21 22  1  0
 22 23  1  0
 23 24  2  0
 23 25  1  0
 25 26  2  0
 26 27  1  0
 27 28  2  0
 28 29  1  0
 29 30  2  0
 11  6  1  0
 20 15  1  0
 30 21  1  0
 30 25  1  0
M  END
