
     RDKit          2D

 30 33  0  0  0  0  0  0  0  0999 V2000
   -9.0776   -0.2816    0.0000 C   0  0  0  0  0  0  0  0  0  0  0  0
   -7.6174    0.0618    0.0000 C   0  0  0  0  0  0  0  0  0  0  0  0
   -7.1848    1.4980    0.0000 O   0  0  0  0  0  0  0  0  0  0  0  0
   -6.5900   -1.0310    0.0000 O   0  0  0  0  0  0  0  0  0  0  0  0
   -5.1298   -0.6876    0.0000 C   0  0  0  0  0  0  0  0  0  0  0  0
   -4.6971    0.7486    0.0000 C   0  0  0  0  0  0  0  0  0  0  0  0
   -3.2370    1.0920    0.0000 C   0  0  0  0  0  0  0  0  0  0  0  0
   -2.2095   -0.0008    0.0000 C   0  0  0  0  0  0  0  0  0  0  0  0
   -1.7768    1.4355    0.0000 C   0  0  0  0  0  0  0  0  0  0  0  0
   -2.6422   -1.4370    0.0000 C   0  0  0  0  0  0  0  0  0  0  0  0
   -1.6147   -2.5299    0.0000 C   0  0  0  0  0  0  0  0  0  0  0  0
   -0.1545   -2.1865    0.0000 C   0  0  0  0  0  0  0  0  0  0  0  0
    0.2782   -0.7502    0.0000 C   0  0  0  0  0  0  0  0  0  0  0  0
   -0.7493    0.3426    0.0000 C   0  0  0  0  0  0  0  0  0  0  0  0
   -0.3166    1.7789    0.0000 C   0  0  0  0  0  0  0  0  0  0  0  0
    1.1435    2.1223    0.0000 C   0  0  0  0  0  0  0  0  0  0  0  0
    2.1710    1.0294    0.0000 C   0  0  0  0  0  0  0  0  0  0  0  0
    2.7514    2.4126    0.0000 C   0  0  0  0  0  0  0  0  0  0  0  0
    1.7383   -0.4068    0.0000 C   0  0  0  0  0  0  0  0  0  0  0  0
    2.9706   -1.2621    0.0000 C   0  0  0  0  0  0  0  0  0  0  0  0
    4.1648   -0.3545    0.0000 C   0  0  0  0  0  0  0  0  0  0  0  0
    5.6011   -0.7872    0.0000 O   0  0  0  0  0  0  0  0  0  0  0  0
    5.9445   -2.2473    0.0000 C   0  0  0  0  0  0  0  0  0  0  0  0
    7.3807   -2.6800    0.0000 C   0  0  0  0  0  0  0  0  0  0  0  0
    4.8516   -3.2748    0.0000 O   0  0  0  0  0  0  0  0  0  0  0  0
    3.6707    1.0618    0.0000 C   0  0  0  0  0  0  0  0  0  0  0  0
    4.5260    2.2940    0.0000 C   0  0  0  0  0  0  0  0  0  0  0  0
    6.0208    2.1694    0.0000 C   0  0  0  0  0  0  0  0  0  0  0  0
    3.8865    3.6509    0.0000 O   0  0  0  0  0  0  0  0  0  0  0  0
   -4.1023   -1.7804    0.0000 C   0  0  0  0  0  0  0  0  0  0  0  0
  1  2  1  0
  2  3  2  0
  2  4  1  0
  5  4  1  1
  5  6  1  0
  6  7  1  0
  7  8  1  0
  8  9  1  1
  8 10  1  0
 10 11  1  1
 11 12  1  0
 13 12  1  6
 13 14  1  0
 14 15  1  6
 15 16  1  0
 16 17  1  0
 17 18  1  1
 17 19  1  0
 19 20  1  1
 20 21  1  0
 21 22  1  6
 22 23  1  0
 23 24  1  0
 23 25  2  0
 21 26  1  0
 26 27  1  1
 27 28  1  0
 27 29  2  0
 10 30  1  0
 30  5  1  0
 14  8  1  0
 26 17  1  0
 19 13  1  0
M  END
