
     RDKit          2D

 30 31  0  0  0  0  0  0  0  0999 V2000
    5.8878   -3.6513    0.0000 C   0  0  0  0  0  0  0  0  0  0  0  0
    6.3548   -2.2258    0.0000 O   0  0  0  0  0  0  0  0  0  0  0  0
    5.3538   -1.1086    0.0000 C   0  0  0  0  0  0  0  0  0  0  0  0
    3.8859   -1.4169    0.0000 C   0  0  0  0  0  0  0  0  0  0  0  0
    2.8849   -0.2998    0.0000 C   0  0  0  0  0  0  0  0  0  0  0  0
    1.4169   -0.6081    0.0000 C   0  0  0  0  0  0  0  0  0  0  0  0
    0.4159    0.5091    0.0000 N   0  0  0  0  0  0  0  0  0  0  0  0
   -1.0520    0.2008    0.0000 C   0  0  0  0  0  0  0  0  0  0  0  0
   -2.0530    1.3180    0.0000 C   0  0  0  0  0  0  0  0  0  0  0  0
   -3.5210    1.0097    0.0000 C   0  0  0  0  0  0  0  0  0  0  0  0
   -4.5220    2.1269    0.0000 C   0  0  0  0  0  0  0  0  0  0  0  0
   -5.9899    1.8186    0.0000 C   0  0  0  0  0  0  0  0  0  0  0  0
   -6.9909    2.9357    0.0000 C   0  0  0  0  0  0  0  0  0  0  0  0
   -8.4589    2.6274    0.0000 C   0  0  0  0  0  0  0  0  0  0  0  0
   -6.5239    4.3612    0.0000 C   0  0  0  0  0  0  0  0  0  0  0  0
   -3.9880   -0.4158    0.0000 C   0  0  0  0  0  0  0  0  0  0  0  0
   -5.4560   -0.7240    0.0000 C   0  0  0  0  0  0  0  0  0  0  0  0
   -5.9230   -2.1495    0.0000 C   0  0  0  0  0  0  0  0  0  0  0  0
   -4.9220   -3.2667    0.0000 O   0  0  0  0  0  0  0  0  0  0  0  0
   -3.4540   -2.9584    0.0000 C   0  0  0  0  0  0  0  0  0  0  0  0
   -1.9691   -3.1708    0.0000 C   0  0  0  0  0  0  0  0  0  0  0  0
   -3.4053   -4.4576    0.0000 C   0  0  0  0  0  0  0  0  0  0  0  0
   -2.9870   -1.5329    0.0000 C   0  0  0  0  0  0  0  0  0  0  0  0
    3.3519    1.1257    0.0000 C   0  0  0  0  0  0  0  0  0  0  0  0
    4.8199    1.4340    0.0000 C   0  0  0  0  0  0  0  0  0  0  0  0
    5.8209    0.3168    0.0000 C   0  0  0  0  0  0  0  0  0  0  0  0
    7.2888    0.6251    0.0000 O   0  0  0  0  0  0  0  0  0  0  0  0
    7.7558    2.0505    0.0000 C   0  0  0  0  0  0  0  0  0  0  0  0
    9.2238    2.3588    0.0000 C   0  0  0  0  0  0  0  0  0  0  0  0
    6.7549    3.1677    0.0000 C   0  0  0  0  0  0  0  0  0  0  0  0
  1  2  1  0
  2  3  1  0
  3  4  2  0
  4  5  1  0
  5  6  1  0
  6  7  1  0
  7  8  1  0
  8  9  1  0
 10  9  1  1
 10 11  1  0
 11 12  1  0
 12 13  1  0
 13 14  1  0
 13 15  1  0
 10 16  1  0
 16 17  1  1
 17 18  1  0
 18 19  1  0
 19 20  1  0
 20 21  1  0
 20 22  1  0
 20 23  1  0
  5 24  2  0
 24 25  1  0
 25 26  2  0
 26 27  1  0
 27 28  1  0
 28 29  1  0
 28 30  1  0
 26  3  1  0
 23 16  1  0
M  END
