
     RDKit          2D

 30 33  0  0  0  0  0  0  0  0999 V2000
   -9.6076    2.7139    0.0000 C   0  0  0  0  0  0  0  0  0  0  0  0
   -8.2705    2.0340    0.0000 O   0  0  0  0  0  0  0  0  0  0  0  0
   -8.1909    0.5361    0.0000 C   0  0  0  0  0  0  0  0  0  0  0  0
   -9.4482   -0.2818    0.0000 O   0  0  0  0  0  0  0  0  0  0  0  0
   -6.8538   -0.1438    0.0000 C   0  0  0  0  0  0  0  0  0  0  0  0
   -5.5964    0.6741    0.0000 C   0  0  0  0  0  0  0  0  0  0  0  0
   -4.2594   -0.0058    0.0000 C   0  0  0  0  0  0  0  0  0  0  0  0
   -4.1797   -1.5037    0.0000 C   0  0  0  0  0  0  0  0  0  0  0  0
   -2.8427   -2.1837    0.0000 C   0  0  0  0  0  0  0  0  0  0  0  0
   -1.5853   -1.3657    0.0000 C   0  0  0  0  0  0  0  0  0  0  0  0
   -0.1845   -1.9022    0.0000 O   0  0  0  0  0  0  0  0  0  0  0  0
    0.7585   -0.7357    0.0000 C   0  0  0  0  0  0  0  0  0  0  0  0
    2.2564   -0.6561    0.0000 C   0  0  0  0  0  0  0  0  0  0  0  0
    2.9364    0.6810    0.0000 C   0  0  0  0  0  0  0  0  0  0  0  0
    4.4342    0.7607    0.0000 O   0  0  0  0  0  0  0  0  0  0  0  0
    5.2522   -0.4967    0.0000 C   0  0  0  0  0  0  0  0  0  0  0  0
    6.7501   -0.4170    0.0000 C   0  0  0  0  0  0  0  0  0  0  0  0
    7.5680   -1.6744    0.0000 C   0  0  0  0  0  0  0  0  0  0  0  0
    9.0659   -1.5947    0.0000 C   0  0  0  0  0  0  0  0  0  0  0  0
    9.7458   -0.2577    0.0000 C   0  0  0  0  0  0  0  0  0  0  0  0
    8.9279    0.9997    0.0000 C   0  0  0  0  0  0  0  0  0  0  0  0
    9.6078    2.3367    0.0000 Cl  0  0  0  0  0  0  0  0  0  0  0  0
    7.4300    0.9200    0.0000 C   0  0  0  0  0  0  0  0  0  0  0  0
    2.1184    1.9384    0.0000 C   0  0  0  0  0  0  0  0  0  0  0  0
    0.6205    1.8587    0.0000 C   0  0  0  0  0  0  0  0  0  0  0  0
   -0.0594    0.5216    0.0000 C   0  0  0  0  0  0  0  0  0  0  0  0
   -1.5080    0.1323    0.0000 C   0  0  0  0  0  0  0  0  0  0  0  0
   -2.6744    1.0754    0.0000 O   0  0  0  0  0  0  0  0  0  0  0  0
   -5.4371   -2.3217    0.0000 C   0  0  0  0  0  0  0  0  0  0  0  0
   -6.7741   -1.6417    0.0000 C   0  0  0  0  0  0  0  0  0  0  0  0
  1  2  1  0
  2  3  1  0
  3  4  2  0
  3  5  1  0
  5  6  2  0
  6  7  1  0
  7  8  2  0
  8  9  1  0
  9 10  2  3
 10 11  1  0
 11 12  1  0
 12 13  2  0
 13 14  1  0
 14 15  1  0
 15 16  1  0
 16 17  1  0
 17 18  2  0
 18 19  1  0
 19 20  2  0
 20 21  1  0
 21 22  1  0
 21 23  2  0
 14 24  2  0
 24 25  1  0
 25 26  2  0
 26 27  1  0
 27 28  2  0
  8 29  1  0
 29 30  2  0
 30  5  1  0
 27 10  1  0
 26 12  1  0
 23 17  1  0
M  END
